* NGSPICE file created from SUN_PLL.ext - technology: sky130B

.subckt SUN_PLL PWRUP_1V8 CK_REF CK IBPSR_1U AVSS AVDD
X0 xaa6.xe.XA1.MN0.G xaa6.xf.XA7.MN1.D AVSS AVSS sky130_fd_pr__nfet_01v8 ad=0.616 pd=3.3 as=0.616 ps=3.3 w=1.08 l=0.18
R0 AVSS m3_37748_115804# sky130_fd_pr__res_generic_m3 w=0.4 l=0.4
X1 xaa1.xa2.M8.D IBPSR_1U xaa1.xa2.M7.D AVSS sky130_fd_pr__nfet_01v8 ad=0.616 pd=3.3 as=0.378 ps=1.78 w=1.08 l=0.18
R1 m3_4628_94524# xaa1.xa4.M0.D sky130_fd_pr__res_generic_m3 w=0.4 l=0.4
X2 xaa4.xa1.M6.D IBPSR_1U xaa4.xa1.M5.D AVSS sky130_fd_pr__nfet_01v8 ad=0.378 pd=1.78 as=0.378 ps=1.78 w=1.08 l=0.18
X3 xaa6.xf.XA6.MN0.G xaa6.xf.XA5.MN0.G AVSS AVSS sky130_fd_pr__nfet_01v8 ad=0.616 pd=3.3 as=0.616 ps=3.3 w=1.08 l=0.18
R2 AVSS m3_37748_107164# sky130_fd_pr__res_generic_m3 w=0.4 l=0.4
X4 AVDD AVDD AVDD AVDD sky130_fd_pr__pfet_01v8 ad=73.5 pd=387 as=0.616 ps=3.3 w=1.08 l=0.18
X5 xaa6.xf.XA7.MN1.G PWRUP_1V8 xaa6.xf.XA1.MN0.D AVSS sky130_fd_pr__nfet_01v8 ad=0.616 pd=3.3 as=0.616 ps=3.3 w=1.08 l=0.18
X6 xaa0.xa3.MP0.D xaa0.xa1.MN2.S AVDD AVDD sky130_fd_pr__pfet_01v8 ad=0.616 pd=3.3 as=0.616 ps=3.3 w=1.08 l=0.18
X7 AVDD PWRUP_1V8 xaa6.xd.XA7.MN0.D AVDD sky130_fd_pr__pfet_01v8 ad=0.616 pd=3.3 as=0.616 ps=3.3 w=1.08 l=0.18
X8 xaa6.xe.XA7.MP1.G xaa6.xe.XA7.MN1.G AVDD AVDD sky130_fd_pr__pfet_01v8 ad=0.616 pd=3.3 as=0.616 ps=3.3 w=1.08 l=0.18
X9 xaa5.xb2_1.MN0.D xaa5.xb2_0.MN0.D xaa4.xa2.M0.G AVDD sky130_fd_pr__pfet_01v8 ad=0.616 pd=3.3 as=0.616 ps=3.3 w=1.08 l=0.18
X10 xaa6.xd.XA5.MN0.G xaa6.xd.XA7.MP1.G xaa6.xd.XA3.MP0.D AVDD sky130_fd_pr__pfet_01v8 ad=0.616 pd=3.3 as=0.616 ps=3.3 w=1.08 l=0.18
X11 xaa6.xf.XA5.MN0.G xaa6.xf.XA7.MP1.G xaa6.xf.XA4.MN0.D AVSS sky130_fd_pr__nfet_01v8 ad=0.616 pd=3.3 as=0.616 ps=3.3 w=1.08 l=0.18
X12 xaa3.xa5a.MN0.D xaa3.xa4.MN0.D AVDD AVDD sky130_fd_pr__pfet_01v8 ad=0.616 pd=3.3 as=0.616 ps=3.3 w=1.08 l=0.18
X13 AVDD xaa4.xa2.M0.D xaa4.xa4.M0.D AVDD sky130_fd_pr__pfet_01v8 ad=0.616 pd=3.3 as=0.378 ps=1.78 w=1.08 l=0.18
X14 xaa4.xa1.M8.D IBPSR_1U xaa4.xa1.M7.D AVSS sky130_fd_pr__nfet_01v8 ad=0.616 pd=3.3 as=0.378 ps=1.78 w=1.08 l=0.18
R3 AVSS m3_37748_78364# sky130_fd_pr__res_generic_m3 w=0.4 l=0.4
X15 xaa6.xe.XA7.MN1.D xaa6.xe.XA7.MN1.G xaa6.xe.XA6.MP0.D AVDD sky130_fd_pr__pfet_01v8 ad=0.616 pd=3.3 as=0.616 ps=3.3 w=1.08 l=0.18
R4 AVSS m3_37748_102364# sky130_fd_pr__res_generic_m3 w=0.4 l=0.4
X16 xaa5.xb3.MP1.D xaa5.xb3.MP1.D xaa5.xb3.MP1.D AVDD sky130_fd_pr__pfet_01v8 ad=1.23 pd=6.6 as=0.616 ps=3.3 w=1.08 l=0.18
R5 AVSS m3_37748_99484# sky130_fd_pr__res_generic_m3 w=0.4 l=0.4
X17 xaa3.xa4.MN0.D xaa3.xa3a.MN0.D AVDD AVDD sky130_fd_pr__pfet_01v8 ad=0.616 pd=3.3 as=0.616 ps=3.3 w=1.08 l=0.18
R6 m3_4628_81084# xaa1.xa4.M0.D sky130_fd_pr__res_generic_m3 w=0.4 l=0.4
R7 m3_4628_116604# xaa1.xa4.M0.D sky130_fd_pr__res_generic_m3 w=0.4 l=0.4
X18 xaa6.xe.XA3.MP0.D xaa6.xe.XA7.MN1.D AVDD AVDD sky130_fd_pr__pfet_01v8 ad=0.616 pd=3.3 as=0.616 ps=3.3 w=1.08 l=0.18
X19 xaa6.xd.XA4.MP0.D xaa6.xd.XA6.MN0.G AVDD AVDD sky130_fd_pr__pfet_01v8 ad=0.616 pd=3.3 as=0.616 ps=3.3 w=1.08 l=0.18
X20 a_2084_70022# xaa1.xa3.D AVSS sky130_fd_pr__res_high_po w=0.72 l=8.8
X21 xaa5.xb2_2.MN0.D xaa5.xb2_1.MN0.D xaa4.xa2.M0.G AVDD sky130_fd_pr__pfet_01v8 ad=0.616 pd=3.3 as=0.616 ps=3.3 w=1.08 l=0.18
X22 AVDD xaa4.xa4.M0.D xaa4.xa2.M0.G AVDD sky130_fd_pr__pfet_01v8 ad=0.378 pd=1.78 as=0.378 ps=1.78 w=1.08 l=0.18
X23 xaa6.xe.XA6.MP0.D xaa6.xe.XA6.MN0.G AVDD AVDD sky130_fd_pr__pfet_01v8 ad=0.616 pd=3.3 as=0.616 ps=3.3 w=1.08 l=0.18
X24 xaa5.xb1.MN1.G xaa5.xa3.xb1_0.G xaa4.xa2.M0.G AVDD sky130_fd_pr__pfet_01v8 ad=0.616 pd=3.3 as=0.616 ps=3.3 w=1.08 l=0.18
R8 AVSS m3_37748_73564# sky130_fd_pr__res_generic_m3 w=0.4 l=0.4
X25 xaa6.xc.XA7.MP1.G xaa6.xc.XA7.MN1.G AVSS AVSS sky130_fd_pr__nfet_01v8 ad=0.616 pd=3.3 as=0.616 ps=3.3 w=1.08 l=0.18
X26 xaa1.xa2.M7.D IBPSR_1U xaa1.xa2.M6.D AVSS sky130_fd_pr__nfet_01v8 ad=0.378 pd=1.78 as=0.378 ps=1.78 w=1.08 l=0.18
X27 xaa1.xa1.M5.D IBPSR_1U xaa1.xa1.M4.D AVSS sky130_fd_pr__nfet_01v8 ad=0.378 pd=1.78 as=0.378 ps=1.78 w=1.08 l=0.18
R9 m3_4628_89724# xaa1.xa4.M0.D sky130_fd_pr__res_generic_m3 w=0.4 l=0.4
X28 xaa1.xb2.M0.D xaa1.xa1.M8.D AVDD AVDD sky130_fd_pr__pfet_01v8 ad=0.378 pd=1.78 as=0.616 ps=3.3 w=1.08 l=0.18
R10 AVSS m3_37748_94684# sky130_fd_pr__res_generic_m3 w=0.4 l=0.4
R11 m3_4628_111804# xaa1.xa4.M0.D sky130_fd_pr__res_generic_m3 w=0.4 l=0.4
X29 a_356_74698# a_n76_76898# AVSS sky130_fd_pr__res_high_po w=0.72 l=8.8
X30 xaa6.xc.XA7.MN1.D xaa6.xc.XA7.MP1.G xaa6.xc.XA6.MN0.D AVSS sky130_fd_pr__nfet_01v8 ad=0.616 pd=3.3 as=0.616 ps=3.3 w=1.08 l=0.18
X31 xaa1.xa2.M5.D IBPSR_1U xaa1.xa2.M4.D AVSS sky130_fd_pr__nfet_01v8 ad=0.378 pd=1.78 as=0.378 ps=1.78 w=1.08 l=0.18
X32 xaa4.xa2.M0.G xaa4.xa4.M0.D AVDD AVDD sky130_fd_pr__pfet_01v8 ad=0.378 pd=1.78 as=0.378 ps=1.78 w=1.08 l=0.18
R12 m3_4628_103164# xaa1.xa4.M0.D sky130_fd_pr__res_generic_m3 w=0.4 l=0.4
X33 xaa6.xc.XA3.MN0.D xaa6.xc.XA7.MN1.D AVSS AVSS sky130_fd_pr__nfet_01v8 ad=0.616 pd=3.3 as=0.616 ps=3.3 w=1.08 l=0.18
X34 xaa5.xa3.xb2_0.D xaa5.xa3.xb2_0.G AVSS AVSS sky130_fd_pr__nfet_01v8 ad=0.616 pd=3.3 as=0.616 ps=3.3 w=1.08 l=0.18
X35 xaa1.xa1.M3.D IBPSR_1U xaa1.xa1.M2.D AVSS sky130_fd_pr__nfet_01v8 ad=0.378 pd=1.78 as=0.378 ps=1.78 w=1.08 l=0.18
R13 AVSS li_6204_57236# sky130_fd_pr__res_generic_l1 w=0.44 l=0.36
X36 a_n508_70022# xbb0.xa1.XA1.N AVSS sky130_fd_pr__res_high_po w=0.72 l=8.8
X37 xaa3.xa2.MN0.D xaa3.xa1capd.B AVSS AVSS sky130_fd_pr__nfet_01v8 ad=0.616 pd=3.3 as=0.616 ps=3.3 w=1.08 l=0.18
X38 a_2084_74698# a_1652_76898# AVSS sky130_fd_pr__res_high_po w=0.72 l=8.8
X39 xaa6.xc.XA6.MN0.D xaa6.xc.XA6.MN0.G AVSS AVSS sky130_fd_pr__nfet_01v8 ad=0.616 pd=3.3 as=0.616 ps=3.3 w=1.08 l=0.18
R14 m3_4628_84924# xaa1.xa4.M0.D sky130_fd_pr__res_generic_m3 w=0.4 l=0.4
X40 xaa6.xf.XA7.MP1.G xaa6.xf.XA7.MN1.G AVDD AVDD sky130_fd_pr__pfet_01v8 ad=0.616 pd=3.3 as=0.616 ps=3.3 w=1.08 l=0.18
X41 AVSS AVSS AVSS AVSS sky130_fd_pr__nfet_01v8 ad=61.6 pd=330 as=0.616 ps=3.3 w=1.08 l=0.18
X42 xaa4.xa1.M5.D IBPSR_1U xaa4.xa1.M4.D AVSS sky130_fd_pr__nfet_01v8 ad=0.378 pd=1.78 as=0.378 ps=1.78 w=1.08 l=0.18
R15 m3_4628_76284# xaa1.xa4.M0.D sky130_fd_pr__res_generic_m3 w=0.4 l=0.4
X43 xaa6.xd.XA7.MN2.D PWRUP_1V8 AVSS AVSS sky130_fd_pr__nfet_01v8 ad=0.616 pd=3.3 as=0.616 ps=3.3 w=1.08 l=0.18
X44 xaa6.xd.XA5.MN0.G xaa6.xd.XA7.MN1.G xaa6.xd.XA3.MN0.D AVSS sky130_fd_pr__nfet_01v8 ad=0.616 pd=3.3 as=0.616 ps=3.3 w=1.08 l=0.18
X45 xaa5.xb2_1.MN0.D xaa5.xb2_0.MN0.D AVSS AVSS sky130_fd_pr__nfet_01v8 ad=0.616 pd=3.3 as=0.616 ps=3.3 w=1.08 l=0.18
X46 xaa3.xa3a.MN0.D xaa3.xa2.MN0.D AVSS AVSS sky130_fd_pr__nfet_01v8 ad=0.616 pd=3.3 as=0.616 ps=3.3 w=1.08 l=0.18
R16 xaa4.xa2.M0.G m3_22620_60292# sky130_fd_pr__res_generic_m3 w=0.44 l=0.36
X47 xaa6.xf.XA7.MN1.D xaa6.xf.XA7.MN1.G xaa6.xf.XA6.MP0.D AVDD sky130_fd_pr__pfet_01v8 ad=0.616 pd=3.3 as=0.616 ps=3.3 w=1.08 l=0.18
R17 AVSS m3_37748_86044# sky130_fd_pr__res_generic_m3 w=0.4 l=0.4
X48 xaa4.xa4.M0.D xaa4.xa2.M0.D AVDD AVDD sky130_fd_pr__pfet_01v8 ad=0.378 pd=1.78 as=0.378 ps=1.78 w=1.08 l=0.18
X49 xaa4.xa1.M3.D IBPSR_1U xaa4.xa1.M2.D AVSS sky130_fd_pr__nfet_01v8 ad=0.378 pd=1.78 as=0.378 ps=1.78 w=1.08 l=0.18
X50 xaa1.xa4.M0.G xaa3.xa7.MN0.D xaa3.xa8.MP0.D AVDD sky130_fd_pr__pfet_01v8 ad=0.616 pd=3.3 as=0.616 ps=3.3 w=1.08 l=0.18
X51 xaa6.xf.XA3.MP0.D xaa6.xf.XA7.MN1.D AVDD AVDD sky130_fd_pr__pfet_01v8 ad=0.616 pd=3.3 as=0.616 ps=3.3 w=1.08 l=0.18
R18 AVSS m3_37748_110044# sky130_fd_pr__res_generic_m3 w=0.4 l=0.4
X52 IBPSR_1U IBPSR_1U xbb1.xa3.M7.D AVSS sky130_fd_pr__nfet_01v8 ad=0.616 pd=3.3 as=0.378 ps=1.78 w=1.08 l=0.18
X53 AVSS AVSS AVSS AVSS sky130_fd_pr__nfet_01v8 ad=0.616 pd=3.3 as=0 ps=0 w=1.08 l=0.18
R19 AVSS m3_37748_89884# sky130_fd_pr__res_generic_m3 w=0.4 l=0.4
R20 m3_4628_71484# xaa1.xa3.D sky130_fd_pr__res_generic_m3 w=0.4 l=0.4
X54 xaa6.xf.XA6.MP0.D xaa6.xf.XA6.MN0.G AVDD AVDD sky130_fd_pr__pfet_01v8 ad=0.616 pd=3.3 as=0.616 ps=3.3 w=1.08 l=0.18
X55 xaa5.xa3.xc1a.D xaa5.xa3.xb2_0.D AVDD AVDD sky130_fd_pr__pfet_01v8 ad=0.616 pd=3.3 as=0.616 ps=3.3 w=1.08 l=0.18
X56 xaa6.xd.XA4.MN0.D xaa6.xd.XA6.MN0.G AVSS AVSS sky130_fd_pr__nfet_01v8 ad=0.616 pd=3.3 as=0.616 ps=3.3 w=1.08 l=0.18
X57 xaa5.xb2_2.MN0.D xaa5.xb2_1.MN0.D AVSS AVSS sky130_fd_pr__nfet_01v8 ad=0.616 pd=3.3 as=0.616 ps=3.3 w=1.08 l=0.18
R21 AVSS m3_37748_113884# sky130_fd_pr__res_generic_m3 w=0.4 l=0.4
X58 xaa6.xg.XA1.MN0.D CK AVSS AVSS sky130_fd_pr__nfet_01v8 ad=0.616 pd=3.3 as=0.616 ps=3.3 w=1.08 l=0.18
X59 xaa3.xa7.MN0.D xaa3.xa6.MN0.D AVSS AVSS sky130_fd_pr__nfet_01v8 ad=0.616 pd=3.3 as=0.616 ps=3.3 w=1.08 l=0.18
X60 AVDD AVDD AVDD AVDD sky130_fd_pr__pfet_01v8 ad=0.616 pd=3.3 as=0 ps=0 w=1.08 l=0.18
X61 CK xaa5.xa3.xb2_0.D AVDD AVDD sky130_fd_pr__pfet_01v8 ad=0.616 pd=3.3 as=0.616 ps=3.3 w=1.08 l=0.18
X62 xaa0.xa1.MN0.D xaa0.xa1.MN0.G AVSS AVSS sky130_fd_pr__nfet_01v8 ad=0.616 pd=3.3 as=0.616 ps=3.3 w=1.08 l=0.18
X63 xbb1.xa3.M6.D IBPSR_1U xbb1.xa3.M5.D AVSS sky130_fd_pr__nfet_01v8 ad=0.378 pd=1.78 as=0.378 ps=1.78 w=1.08 l=0.18
X64 xaa6.xd.XA1.MN0.G xaa6.xe.XA7.MN1.D AVSS AVSS sky130_fd_pr__nfet_01v8 ad=0.616 pd=3.3 as=0.616 ps=3.3 w=1.08 l=0.18
X65 xaa4.xa2.M0.G xaa4.xa4.M0.D AVDD AVDD sky130_fd_pr__pfet_01v8 ad=0.378 pd=1.78 as=0.378 ps=1.78 w=1.08 l=0.18
X66 xaa5.xb1.MN1.G xaa5.xa3.xb1_0.G AVSS AVSS sky130_fd_pr__nfet_01v8 ad=0.616 pd=3.3 as=0.616 ps=3.3 w=1.08 l=0.18
R22 AVSS m3_37748_81244# sky130_fd_pr__res_generic_m3 w=0.4 l=0.4
R23 m3_13044_61524# AVSS sky130_fd_pr__res_generic_m3 w=0.44 l=0.36
X67 AVDD PWRUP_1V8 xaa6.xg.XA7.MN0.D AVDD sky130_fd_pr__pfet_01v8 ad=0.616 pd=3.3 as=0.616 ps=3.3 w=1.08 l=0.18
X68 xaa6.xc.XA7.MN1.G xaa6.xc.XA1.MN0.G AVDD AVDD sky130_fd_pr__pfet_01v8 ad=0.616 pd=3.3 as=0.616 ps=3.3 w=1.08 l=0.18
X69 xaa6.xe.XA6.MN0.G xaa6.xe.XA5.MN0.G AVSS AVSS sky130_fd_pr__nfet_01v8 ad=0.616 pd=3.3 as=0.616 ps=3.3 w=1.08 l=0.18
X70 xaa6.xg.XA5.MN0.G xaa6.xg.XA7.MP1.G xaa6.xg.XA3.MP0.D AVDD sky130_fd_pr__pfet_01v8 ad=0.616 pd=3.3 as=0.616 ps=3.3 w=1.08 l=0.18
R24 m3_4628_97404# xaa1.xa4.M0.D sky130_fd_pr__res_generic_m3 w=0.4 l=0.4
X71 xaa6.xe.XA7.MN1.G PWRUP_1V8 xaa6.xe.XA1.MN0.D AVSS sky130_fd_pr__nfet_01v8 ad=0.616 pd=3.3 as=0.616 ps=3.3 w=1.08 l=0.18
X72 xaa1.xa4.M0.D xaa1.xa4.M0.G AVSS AVSS sky130_fd_pr__nfet_01v8 ad=0.378 pd=1.78 as=0.616 ps=3.3 w=1.08 l=0.18
X73 xaa4.xa2.M0.G xaa4.xa4.M0.D AVDD AVDD sky130_fd_pr__pfet_01v8 ad=0.378 pd=1.78 as=0.616 ps=3.3 w=1.08 l=0.18
X74 xaa3.xa1b.MN0.D PWRUP_1V8 AVDD AVDD sky130_fd_pr__pfet_01v8 ad=0.616 pd=3.3 as=0.616 ps=3.3 w=1.08 l=0.18
X75 xaa1.xa4.M0.G xaa3.xa1b.MN0.D AVSS AVSS sky130_fd_pr__nfet_01v8 ad=0.616 pd=3.3 as=0.616 ps=3.3 w=1.08 l=0.18
X76 AVDD AVDD AVDD AVDD sky130_fd_pr__pfet_01v8 ad=0 pd=0 as=0.616 ps=3.3 w=1.08 l=0.18
X77 xaa1.xa2.M0.D IBPSR_1U AVSS AVSS sky130_fd_pr__nfet_01v8 ad=0.378 pd=1.78 as=0.616 ps=3.3 w=1.08 l=0.18
X78 xaa6.xe.XA5.MN0.G xaa6.xe.XA7.MP1.G xaa6.xe.XA4.MN0.D AVSS sky130_fd_pr__nfet_01v8 ad=0.616 pd=3.3 as=0.616 ps=3.3 w=1.08 l=0.18
X79 xaa4.xa2.M0.G xaa4.xa4.M0.D AVDD AVDD sky130_fd_pr__pfet_01v8 ad=0.378 pd=1.78 as=0.378 ps=1.78 w=1.08 l=0.18
X80 a_1220_70022# a_1652_72222# AVSS sky130_fd_pr__res_high_po w=0.72 l=8.8
R25 m3_13044_55188# AVSS sky130_fd_pr__res_generic_m3 w=0.44 l=0.36
X81 xaa6.xg.XA7.MN1.D xaa6.xg.XA7.MN1.G xaa6.xg.XA7.MN0.D AVSS sky130_fd_pr__nfet_01v8 ad=0.616 pd=3.3 as=0.616 ps=3.3 w=1.08 l=0.18
X82 xaa6.xg.XA4.MP0.D xaa6.xg.XA4.MN0.G AVDD AVDD sky130_fd_pr__pfet_01v8 ad=0.616 pd=3.3 as=0.616 ps=3.3 w=1.08 l=0.18
R26 m3_13044_58356# AVSS sky130_fd_pr__res_generic_m3 w=0.44 l=0.36
R27 m3_4628_92604# xaa1.xa4.M0.D sky130_fd_pr__res_generic_m3 w=0.4 l=0.4
R28 m3_4628_114684# xaa1.xa4.M0.D sky130_fd_pr__res_generic_m3 w=0.4 l=0.4
X83 xaa6.xc.XA7.MN1.D xaa6.xc.XA7.MP1.G xaa6.xc.XA7.MN0.D AVDD sky130_fd_pr__pfet_01v8 ad=0.616 pd=3.3 as=0.616 ps=3.3 w=1.08 l=0.18
R29 xaa4.xa2.M0.G m3_22620_57124# sky130_fd_pr__res_generic_m3 w=0.44 l=0.36
X84 xaa6.xf.XA7.MP1.G xaa6.xf.XA7.MN1.G AVSS AVSS sky130_fd_pr__nfet_01v8 ad=0.616 pd=3.3 as=0.616 ps=3.3 w=1.08 l=0.18
R30 AVSS m3_37748_105244# sky130_fd_pr__res_generic_m3 w=0.4 l=0.4
X85 xaa1.xa2.M2.D IBPSR_1U xaa1.xa2.M1.D AVSS sky130_fd_pr__nfet_01v8 ad=0.378 pd=1.78 as=0.378 ps=1.78 w=1.08 l=0.18
X86 xaa4.xa1.M0.D IBPSR_1U AVSS AVSS sky130_fd_pr__nfet_01v8 ad=0.378 pd=1.78 as=0.616 ps=3.3 w=1.08 l=0.18
X87 xaa6.xg.XA7.MN0.D xaa6.xg.XA7.MN0.G xaa6.xg.XA7.MN2.D AVSS sky130_fd_pr__nfet_01v8 ad=0.616 pd=3.3 as=0.616 ps=3.3 w=1.08 l=0.18
X88 xaa0.xa1.MP1.D xaa0.xa1.MN0.G AVDD AVDD sky130_fd_pr__pfet_01v8 ad=0.616 pd=3.3 as=0.616 ps=3.3 w=1.08 l=0.18
X89 xaa6.xc.XA7.MN0.D xaa0.xa5.MN2.G AVDD AVDD sky130_fd_pr__pfet_01v8 ad=0.616 pd=3.3 as=0.616 ps=3.3 w=1.08 l=0.18
X90 xaa4.xa2.M0.D xaa4.xa2.M0.G xaa4.xa1.M8.D AVSS sky130_fd_pr__nfet_01v8 ad=0.378 pd=1.78 as=0.616 ps=3.3 w=1.08 l=0.18
X91 xaa6.xf.XA7.MN1.D xaa6.xf.XA7.MP1.G xaa6.xf.XA6.MN0.D AVSS sky130_fd_pr__nfet_01v8 ad=0.616 pd=3.3 as=0.616 ps=3.3 w=1.08 l=0.18
R31 AVSS m3_37748_76444# sky130_fd_pr__res_generic_m3 w=0.4 l=0.4
X92 AVDD AVDD AVDD AVDD sky130_fd_pr__pfet_01v8 ad=0 pd=0 as=0.616 ps=3.3 w=1.08 l=0.18
X93 xaa5.xb1.MN1.D PWRUP_1V8 xaa4.xa2.M0.G AVDD sky130_fd_pr__pfet_01v8 ad=0.616 pd=3.3 as=0.616 ps=3.3 w=1.08 l=0.18
X94 xaa6.xf.XA3.MN0.D xaa6.xf.XA7.MN1.D AVSS AVSS sky130_fd_pr__nfet_01v8 ad=0.616 pd=3.3 as=0.616 ps=3.3 w=1.08 l=0.18
X95 AVSS AVSS AVSS AVSS sky130_fd_pr__nfet_01v8 ad=0 pd=0 as=0.616 ps=3.3 w=1.08 l=0.18
X96 AVDD PWRUP_1V8 xaa6.xe.XA7.MN0.D AVDD sky130_fd_pr__pfet_01v8 ad=0.616 pd=3.3 as=0.616 ps=3.3 w=1.08 l=0.18
R32 AVSS m3_37748_100444# sky130_fd_pr__res_generic_m3 w=0.4 l=0.4
X97 xbb1.xa3.M3.D IBPSR_1U xbb1.xa3.M2.D AVSS sky130_fd_pr__nfet_01v8 ad=0.378 pd=1.78 as=0.378 ps=1.78 w=1.08 l=0.18
R33 AVSS m3_37748_97564# sky130_fd_pr__res_generic_m3 w=0.4 l=0.4
X98 xaa6.xe.XA5.MN0.G xaa6.xe.XA7.MP1.G xaa6.xe.XA3.MP0.D AVDD sky130_fd_pr__pfet_01v8 ad=0.616 pd=3.3 as=0.616 ps=3.3 w=1.08 l=0.18
X99 xaa5.xb2_3.MN0.D xaa5.xb2_2.MN0.D xaa4.xa2.M0.G AVDD sky130_fd_pr__pfet_01v8 ad=0.616 pd=3.3 as=0.616 ps=3.3 w=1.08 l=0.18
X100 xaa6.xf.XA6.MN0.D xaa6.xf.XA6.MN0.G AVSS AVSS sky130_fd_pr__nfet_01v8 ad=0.616 pd=3.3 as=0.616 ps=3.3 w=1.08 l=0.18
X101 xaa6.xd.XA7.MN1.G xaa6.xd.XA1.MN0.G AVDD AVDD sky130_fd_pr__pfet_01v8 ad=0.616 pd=3.3 as=0.616 ps=3.3 w=1.08 l=0.18
R34 m3_4628_106044# xaa1.xa4.M0.D sky130_fd_pr__res_generic_m3 w=0.4 l=0.4
X102 xbb1.xa3.M1.D IBPSR_1U xbb1.xa3.M0.D AVSS sky130_fd_pr__nfet_01v8 ad=0.378 pd=1.78 as=0.378 ps=1.78 w=1.08 l=0.18
X103 xaa4.xa2.M0.G xaa4.xa4.M0.D AVDD AVDD sky130_fd_pr__pfet_01v8 ad=0.378 pd=1.78 as=0.378 ps=1.78 w=1.08 l=0.18
R35 AVSS m3_37748_71644# sky130_fd_pr__res_generic_m3 w=0.4 l=0.4
X104 xaa6.xe.XA4.MP0.D xaa6.xe.XA6.MN0.G AVDD AVDD sky130_fd_pr__pfet_01v8 ad=0.616 pd=3.3 as=0.616 ps=3.3 w=1.08 l=0.18
X105 AVDD xaa4.xa4.M0.D xaa4.xa2.M0.G AVDD sky130_fd_pr__pfet_01v8 ad=0.378 pd=1.78 as=0.378 ps=1.78 w=1.08 l=0.18
X106 xaa5.xb2_4.MN0.D xaa5.xb2_3.MN0.D xaa4.xa2.M0.G AVDD sky130_fd_pr__pfet_01v8 ad=0.616 pd=3.3 as=0.616 ps=3.3 w=1.08 l=0.18
R36 m3_4628_87804# xaa1.xa4.M0.D sky130_fd_pr__res_generic_m3 w=0.4 l=0.4
R37 m3_4628_109884# xaa1.xa4.M0.D sky130_fd_pr__res_generic_m3 w=0.4 l=0.4
X107 AVSS AVSS AVSS AVSS sky130_fd_pr__nfet_01v8 ad=0 pd=0 as=0.616 ps=3.3 w=1.08 l=0.18
X108 xaa3.xa5a.MN0.D xaa3.xa4.MN0.D AVSS AVSS sky130_fd_pr__nfet_01v8 ad=0.616 pd=3.3 as=0.616 ps=3.3 w=1.08 l=0.18
X109 xaa4.xa2.M0.D xaa4.xa2.M0.D AVDD AVDD sky130_fd_pr__pfet_01v8 ad=0.378 pd=1.78 as=0.616 ps=3.3 w=1.08 l=0.18
R38 AVSS m3_37748_92764# sky130_fd_pr__res_generic_m3 w=0.4 l=0.4
X110 xaa6.xc.XA7.MN2.D PWRUP_1V8 AVSS AVSS sky130_fd_pr__nfet_01v8 ad=0.616 pd=3.3 as=0.616 ps=3.3 w=1.08 l=0.18
R39 m3_4628_79164# xaa1.xa4.M0.D sky130_fd_pr__res_generic_m3 w=0.4 l=0.4
X111 xaa4.xa2.M0.G xaa4.xa4.M0.D AVDD AVDD sky130_fd_pr__pfet_01v8 ad=0.378 pd=1.78 as=0.378 ps=1.78 w=1.08 l=0.18
X112 xaa6.xc.XA5.MN0.G xaa6.xc.XA7.MN1.G xaa6.xc.XA3.MN0.D AVSS sky130_fd_pr__nfet_01v8 ad=0.616 pd=3.3 as=0.616 ps=3.3 w=1.08 l=0.18
X113 xaa5.xa3.xb2_0.D xaa5.xa3.xb2_0.G AVSS AVSS sky130_fd_pr__nfet_01v8 ad=0.616 pd=3.3 as=0.616 ps=3.3 w=1.08 l=0.18
X114 AVDD xaa4.xa4.M0.D xaa4.xa2.M0.G AVDD sky130_fd_pr__pfet_01v8 ad=0.378 pd=1.78 as=0.378 ps=1.78 w=1.08 l=0.18
R40 m3_4628_101244# xaa1.xa4.M0.D sky130_fd_pr__res_generic_m3 w=0.4 l=0.4
X115 xaa6.xd.XA7.MN1.D xaa6.xd.XA7.MP1.G xaa6.xd.XA7.MN0.D AVDD sky130_fd_pr__pfet_01v8 ad=0.616 pd=3.3 as=0.616 ps=3.3 w=1.08 l=0.18
X116 xaa3.xa4.MN0.D xaa3.xa3a.MN0.D AVSS AVSS sky130_fd_pr__nfet_01v8 ad=0.616 pd=3.3 as=0.616 ps=3.3 w=1.08 l=0.18
X117 xaa6.xd.XA7.MN0.D xaa6.xc.XA1.MN0.G AVDD AVDD sky130_fd_pr__pfet_01v8 ad=0.616 pd=3.3 as=0.616 ps=3.3 w=1.08 l=0.18
X118 xaa6.xc.XA4.MN0.D xaa6.xc.XA6.MN0.G AVSS AVSS sky130_fd_pr__nfet_01v8 ad=0.616 pd=3.3 as=0.616 ps=3.3 w=1.08 l=0.18
X119 xaa5.xa4.MN0.D xaa5.xa3.xb1_0.D AVSS AVSS sky130_fd_pr__nfet_01v8 ad=0.616 pd=3.3 as=0.616 ps=3.3 w=1.08 l=0.18
X120 xaa1.xa1.M7.D IBPSR_1U xaa1.xa1.M6.D AVSS sky130_fd_pr__nfet_01v8 ad=0.378 pd=1.78 as=0.378 ps=1.78 w=1.08 l=0.18
R41 m3_4628_74364# xaa1.xa4.M0.D sky130_fd_pr__res_generic_m3 w=0.4 l=0.4
X121 AVDD AVDD AVDD AVDD sky130_fd_pr__pfet_01v8 ad=0 pd=0 as=0.616 ps=3.3 w=1.08 l=0.18
R42 AVSS m3_37748_116764# sky130_fd_pr__res_generic_m3 w=0.4 l=0.4
X122 AVDD PWRUP_1V8 xaa6.xf.XA7.MN0.D AVDD sky130_fd_pr__pfet_01v8 ad=0.616 pd=3.3 as=0.616 ps=3.3 w=1.08 l=0.18
R43 m3_4628_95484# xaa1.xa4.M0.D sky130_fd_pr__res_generic_m3 w=0.4 l=0.4
R44 AVSS m3_37748_84124# sky130_fd_pr__res_generic_m3 w=0.4 l=0.4
X123 xaa6.xf.XA5.MN0.G xaa6.xf.XA7.MP1.G xaa6.xf.XA3.MP0.D AVDD sky130_fd_pr__pfet_01v8 ad=0.616 pd=3.3 as=0.616 ps=3.3 w=1.08 l=0.18
X124 xaa5.xb1.MN0.D PWRUP_1V8 AVSS AVSS sky130_fd_pr__nfet_01v8 ad=0.616 pd=3.3 as=0.616 ps=3.3 w=1.08 l=0.18
X125 IBPSR_1U xaa3.xa1b.MN0.D AVSS AVSS sky130_fd_pr__nfet_01v8 ad=0.616 pd=3.3 as=0.616 ps=3.3 w=1.08 l=0.18
X126 a_356_70022# a_n76_72222# AVSS sky130_fd_pr__res_high_po w=0.72 l=8.8
X127 xaa5.xb2_3.MN0.D xaa5.xb2_2.MN0.D AVSS AVSS sky130_fd_pr__nfet_01v8 ad=0.616 pd=3.3 as=0.616 ps=3.3 w=1.08 l=0.18
R45 AVSS m3_37748_87964# sky130_fd_pr__res_generic_m3 w=0.4 l=0.4
X128 xaa6.xd.XA1.MN0.D xaa6.xd.XA1.MN0.G AVSS AVSS sky130_fd_pr__nfet_01v8 ad=0.616 pd=3.3 as=0.616 ps=3.3 w=1.08 l=0.18
X129 xaa4.xa1.M7.D IBPSR_1U xaa4.xa1.M6.D AVSS sky130_fd_pr__nfet_01v8 ad=0.378 pd=1.78 as=0.378 ps=1.78 w=1.08 l=0.18
R46 AVSS m3_37748_111964# sky130_fd_pr__res_generic_m3 w=0.4 l=0.4
X130 xaa6.xf.XA4.MP0.D xaa6.xf.XA6.MN0.G AVDD AVDD sky130_fd_pr__pfet_01v8 ad=0.616 pd=3.3 as=0.616 ps=3.3 w=1.08 l=0.18
X131 xaa4.xa2.M0.G xaa4.xa4.M0.D AVDD AVDD sky130_fd_pr__pfet_01v8 ad=0.378 pd=1.78 as=0.378 ps=1.78 w=1.08 l=0.18
X132 a_356_74698# a_788_76898# AVSS sky130_fd_pr__res_high_po w=0.72 l=8.8
R47 m3_4628_90684# xaa1.xa4.M0.D sky130_fd_pr__res_generic_m3 w=0.4 l=0.4
X133 AVDD xaa4.xa4.M0.D xaa4.xa2.M0.G AVDD sky130_fd_pr__pfet_01v8 ad=0.378 pd=1.78 as=0.378 ps=1.78 w=1.08 l=0.18
X134 a_2084_70022# a_1652_72222# AVSS sky130_fd_pr__res_high_po w=0.72 l=8.8
R48 m3_4628_117564# xaa1.xa4.M0.D sky130_fd_pr__res_generic_m3 w=0.4 l=0.4
X135 xaa6.xe.XA7.MP1.G xaa6.xe.XA7.MN1.G AVSS AVSS sky130_fd_pr__nfet_01v8 ad=0.616 pd=3.3 as=0.616 ps=3.3 w=1.08 l=0.18
X136 AVDD xaa4.xa2.M0.D xaa4.xa2.M0.D AVDD sky130_fd_pr__pfet_01v8 ad=0.616 pd=3.3 as=0.378 ps=1.78 w=1.08 l=0.18
X137 xaa5.xb2_4.MN0.D xaa5.xb2_3.MN0.D AVSS AVSS sky130_fd_pr__nfet_01v8 ad=0.616 pd=3.3 as=0.616 ps=3.3 w=1.08 l=0.18
R49 m3_13044_54132# AVSS sky130_fd_pr__res_generic_m3 w=0.44 l=0.36
R50 AVSS m3_37748_108124# sky130_fd_pr__res_generic_m3 w=0.4 l=0.4
X138 xaa4.xa4.M0.D xaa4.xa2.M0.D AVDD AVDD sky130_fd_pr__pfet_01v8 ad=0.378 pd=1.78 as=0.378 ps=1.78 w=1.08 l=0.18
X139 xaa3.xa9.MN0.D xaa1.xa4.M0.G AVDD AVDD sky130_fd_pr__pfet_01v8 ad=0.616 pd=3.3 as=0.616 ps=3.3 w=1.08 l=0.18
X140 AVSS xaa3.xa7.MN0.D xaa1.xa4.M0.G AVSS sky130_fd_pr__nfet_01v8 ad=0.616 pd=3.3 as=0.616 ps=3.3 w=1.08 l=0.18
R51 m3_13044_57300# AVSS sky130_fd_pr__res_generic_m3 w=0.44 l=0.36
R52 m3_4628_69564# xaa1.xa3.D sky130_fd_pr__res_generic_m3 w=0.4 l=0.4
X141 xaa5.xa3.xb1_0.D xaa5.xa3.xb2_0.D xaa5.xa3.xc1a.D AVDD sky130_fd_pr__pfet_01v8 ad=0.616 pd=3.3 as=0.616 ps=3.3 w=1.08 l=0.18
X142 AVDD xaa4.xa2.M0.D xaa4.xa2.M0.D AVDD sky130_fd_pr__pfet_01v8 ad=0.378 pd=1.78 as=0.378 ps=1.78 w=1.08 l=0.18
X143 xaa6.xe.XA7.MN1.D xaa6.xe.XA7.MP1.G xaa6.xe.XA6.MN0.D AVSS sky130_fd_pr__nfet_01v8 ad=0.616 pd=3.3 as=0.616 ps=3.3 w=1.08 l=0.18
X144 xaa6.xd.XA7.MN1.D xaa6.xd.XA7.MN1.G xaa6.xd.XA7.MN0.D AVSS sky130_fd_pr__nfet_01v8 ad=0.616 pd=3.3 as=0.616 ps=3.3 w=1.08 l=0.18
X145 xaa6.xf.XA1.MN0.G xaa6.xg.XA7.MN1.D AVSS AVSS sky130_fd_pr__nfet_01v8 ad=0.616 pd=3.3 as=0.616 ps=3.3 w=1.08 l=0.18
X146 AVDD xaa4.xa4.M0.D xaa4.xa2.M0.G AVDD sky130_fd_pr__pfet_01v8 ad=0.378 pd=1.78 as=0.378 ps=1.78 w=1.08 l=0.18
X147 xaa6.xg.XA3.MN1.G CK AVDD AVDD sky130_fd_pr__pfet_01v8 ad=0.616 pd=3.3 as=0.616 ps=3.3 w=1.08 l=0.18
X148 xaa6.xe.XA3.MN0.D xaa6.xe.XA7.MN1.D AVSS AVSS sky130_fd_pr__nfet_01v8 ad=0.616 pd=3.3 as=0.616 ps=3.3 w=1.08 l=0.18
X149 xaa6.xg.XA5.MN0.D xaa6.xg.XA5.MN0.G AVSS AVSS sky130_fd_pr__nfet_01v8 ad=0.616 pd=3.3 as=0.616 ps=3.3 w=1.08 l=0.18
R53 AVSS m3_37748_79324# sky130_fd_pr__res_generic_m3 w=0.4 l=0.4
X150 xaa0.xa5.MN0.D xaa0.xa1.MN0.G AVSS AVSS sky130_fd_pr__nfet_01v8 ad=0.616 pd=3.3 as=0.616 ps=3.3 w=1.08 l=0.18
X151 xaa0.xa5.MN2.G xaa6.xc.XA7.MN1.D AVDD AVDD sky130_fd_pr__pfet_01v8 ad=0.616 pd=3.3 as=0.616 ps=3.3 w=1.08 l=0.18
X152 xaa6.xg.XA3.MN1.G PWRUP_1V8 xaa6.xg.XA1.MN0.D AVSS sky130_fd_pr__nfet_01v8 ad=0.616 pd=3.3 as=0.616 ps=3.3 w=1.08 l=0.18
X153 a_n508_74698# a_n76_76898# AVSS sky130_fd_pr__res_high_po w=0.72 l=8.8
R54 m3_4628_112764# xaa1.xa4.M0.D sky130_fd_pr__res_generic_m3 w=0.4 l=0.4
X154 xaa6.xc.XA6.MN0.G xaa6.xc.XA5.MN0.G AVDD AVDD sky130_fd_pr__pfet_01v8 ad=0.616 pd=3.3 as=0.616 ps=3.3 w=1.08 l=0.18
X155 xaa0.xa1.MN2.D CK_REF xaa0.xa1.MN2.S AVSS sky130_fd_pr__nfet_01v8 ad=0.616 pd=3.3 as=0.616 ps=3.3 w=1.08 l=0.18
X156 xaa6.xe.XA6.MN0.D xaa6.xe.XA6.MN0.G AVSS AVSS sky130_fd_pr__nfet_01v8 ad=0.616 pd=3.3 as=0.616 ps=3.3 w=1.08 l=0.18
X157 xaa6.xd.XA7.MN0.D xaa6.xc.XA1.MN0.G xaa6.xd.XA7.MN2.D AVSS sky130_fd_pr__nfet_01v8 ad=0.616 pd=3.3 as=0.616 ps=3.3 w=1.08 l=0.18
R55 AVSS m3_37748_103324# sky130_fd_pr__res_generic_m3 w=0.4 l=0.4
X158 AVDD PWRUP_1V8 xaa6.xc.XA7.MN1.G AVDD sky130_fd_pr__pfet_01v8 ad=0.616 pd=3.3 as=0.616 ps=3.3 w=1.08 l=0.18
R56 m3_4628_82044# xaa1.xa4.M0.D sky130_fd_pr__res_generic_m3 w=0.4 l=0.4
X159 xaa6.xg.XA5.MN0.G xaa6.xg.XA7.MP1.G xaa6.xg.XA4.MN0.D AVSS sky130_fd_pr__nfet_01v8 ad=0.616 pd=3.3 as=0.616 ps=3.3 w=1.08 l=0.18
X160 xaa1.xa1.M2.D IBPSR_1U xaa1.xa1.M1.D AVSS sky130_fd_pr__nfet_01v8 ad=0.378 pd=1.78 as=0.378 ps=1.78 w=1.08 l=0.18
X161 AVSS AVSS AVSS AVSS sky130_fd_pr__nfet_01v8 ad=0 pd=0 as=0.616 ps=3.3 w=1.08 l=0.18
X162 AVSS xaa0.xa3.MN1.G xaa0.xa1.MN0.G AVSS sky130_fd_pr__nfet_01v8 ad=0.616 pd=3.3 as=0.616 ps=3.3 w=1.08 l=0.18
X163 xaa6.xf.XA7.MN2.D PWRUP_1V8 AVSS AVSS sky130_fd_pr__nfet_01v8 ad=0.616 pd=3.3 as=0.616 ps=3.3 w=1.08 l=0.18
X164 xaa6.xc.XA5.MN0.G xaa6.xc.XA7.MN1.G xaa6.xc.XA4.MP0.D AVDD sky130_fd_pr__pfet_01v8 ad=0.616 pd=3.3 as=0.616 ps=3.3 w=1.08 l=0.18
R57 m3_4628_85884# xaa1.xa4.M0.D sky130_fd_pr__res_generic_m3 w=0.4 l=0.4
X165 xaa6.xf.XA5.MN0.G xaa6.xf.XA7.MN1.G xaa6.xf.XA3.MN0.D AVSS sky130_fd_pr__nfet_01v8 ad=0.616 pd=3.3 as=0.616 ps=3.3 w=1.08 l=0.18
X166 xaa3.xa1b.MN0.D PWRUP_1V8 AVSS AVSS sky130_fd_pr__nfet_01v8 ad=0.616 pd=3.3 as=0.616 ps=3.3 w=1.08 l=0.18
R58 AVSS m3_37748_74524# sky130_fd_pr__res_generic_m3 w=0.4 l=0.4
X167 xaa6.xg.XA7.MN1.D xaa6.xg.XA7.MP1.G xaa6.xg.XA7.MN0.D AVDD sky130_fd_pr__pfet_01v8 ad=0.616 pd=3.3 as=0.616 ps=3.3 w=1.08 l=0.18
X168 xbb1.xa3.M5.D IBPSR_1U xbb1.xa3.M4.D AVSS sky130_fd_pr__nfet_01v8 ad=0.378 pd=1.78 as=0.378 ps=1.78 w=1.08 l=0.18
R59 AVSS m3_37748_95644# sky130_fd_pr__res_generic_m3 w=0.4 l=0.4
X169 xaa4.xa1.M2.D IBPSR_1U xaa4.xa1.M1.D AVSS sky130_fd_pr__nfet_01v8 ad=0.378 pd=1.78 as=0.378 ps=1.78 w=1.08 l=0.18
X170 xaa6.xg.XA7.MN0.D xaa6.xg.XA7.MN0.G AVDD AVDD sky130_fd_pr__pfet_01v8 ad=0.616 pd=3.3 as=0.616 ps=3.3 w=1.08 l=0.18
X171 xaa6.xf.XA4.MN0.D xaa6.xf.XA6.MN0.G AVSS AVSS sky130_fd_pr__nfet_01v8 ad=0.616 pd=3.3 as=0.616 ps=3.3 w=1.08 l=0.18
R60 m3_4628_104124# xaa1.xa4.M0.D sky130_fd_pr__res_generic_m3 w=0.4 l=0.4
X172 xaa0.xa5.MP1.D xaa0.xa1.MN0.G AVDD AVDD sky130_fd_pr__pfet_01v8 ad=0.616 pd=3.3 as=0.616 ps=3.3 w=1.08 l=0.18
X173 xbb1.xa3.M7.D IBPSR_1U xbb1.xa3.M6.D AVSS sky130_fd_pr__nfet_01v8 ad=0.378 pd=1.78 as=0.378 ps=1.78 w=1.08 l=0.18
X174 xaa0.xa1.MN0.D CK_REF xaa0.xa1.MP1.D AVDD sky130_fd_pr__pfet_01v8 ad=0.616 pd=3.3 as=0.616 ps=3.3 w=1.08 l=0.18
X175 AVDD xaa4.xa4.M0.D xaa4.xa2.M0.G AVDD sky130_fd_pr__pfet_01v8 ad=0.378 pd=1.78 as=0.378 ps=1.78 w=1.08 l=0.18
X176 xaa6.xe.XA7.MN1.G xaa6.xe.XA1.MN0.G AVDD AVDD sky130_fd_pr__pfet_01v8 ad=0.616 pd=3.3 as=0.616 ps=3.3 w=1.08 l=0.18
X177 xaa4.xa2.M0.D xaa4.xa2.M0.D AVDD AVDD sky130_fd_pr__pfet_01v8 ad=0.378 pd=1.78 as=0.378 ps=1.78 w=1.08 l=0.18
R61 m3_4628_107964# xaa1.xa4.M0.D sky130_fd_pr__res_generic_m3 w=0.4 l=0.4
X178 xaa3.xa1capd.B xaa3.xa1b.MN0.D AVDD AVDD sky130_fd_pr__pfet_01v8 ad=0.616 pd=3.3 as=0.616 ps=3.3 w=1.08 l=0.18
X179 xaa4.xa2.M0.G xaa5.xb1.MN1.G xaa5.xb1.MN1.D AVDD sky130_fd_pr__pfet_01v8 ad=0.616 pd=3.3 as=0.616 ps=3.3 w=1.08 l=0.18
X180 xaa0.xa1.MN0.G xaa0.xa3.MN1.G xaa0.xa3.MP0.D AVDD sky130_fd_pr__pfet_01v8 ad=0.616 pd=3.3 as=0.616 ps=3.3 w=1.08 l=0.18
R62 AVSS m3_37748_90844# sky130_fd_pr__res_generic_m3 w=0.4 l=0.4
R63 m3_4628_77244# xaa1.xa4.M0.D sky130_fd_pr__res_generic_m3 w=0.4 l=0.4
X181 AVDD xaa4.xa4.M0.D xaa4.xa2.M0.G AVDD sky130_fd_pr__pfet_01v8 ad=0.378 pd=1.78 as=0.378 ps=1.78 w=1.08 l=0.18
X182 xaa6.xc.XA1.MN0.G xaa6.xd.XA7.MN1.D AVDD AVDD sky130_fd_pr__pfet_01v8 ad=0.616 pd=3.3 as=0.616 ps=3.3 w=1.08 l=0.18
X183 AVDD xaa4.xa4.M0.D xaa4.xa2.M0.G AVDD sky130_fd_pr__pfet_01v8 ad=0.616 pd=3.3 as=0.378 ps=1.78 w=1.08 l=0.18
X184 xaa6.xd.XA6.MN0.G xaa6.xd.XA5.MN0.G AVDD AVDD sky130_fd_pr__pfet_01v8 ad=0.616 pd=3.3 as=0.616 ps=3.3 w=1.08 l=0.18
R64 m3_4628_98364# xaa1.xa4.M0.D sky130_fd_pr__res_generic_m3 w=0.4 l=0.4
X185 xaa5.xa3.xb1_0.D xaa5.xa3.xb1_0.G AVSS AVSS sky130_fd_pr__nfet_01v8 ad=0.616 pd=3.3 as=0.616 ps=3.3 w=1.08 l=0.18
X186 xaa4.xa2.M0.D xaa4.xa2.M0.D AVDD AVDD sky130_fd_pr__pfet_01v8 ad=0.378 pd=1.78 as=0.378 ps=1.78 w=1.08 l=0.18
R65 AVSS m3_37748_87004# sky130_fd_pr__res_generic_m3 w=0.4 l=0.4
X187 AVDD PWRUP_1V8 xaa6.xd.XA7.MN1.G AVDD sky130_fd_pr__pfet_01v8 ad=0.616 pd=3.3 as=0.616 ps=3.3 w=1.08 l=0.18
R66 AVSS m3_37748_69724# sky130_fd_pr__res_generic_m3 w=0.4 l=0.4
X188 AVDD xaa4.xa2.M0.D xaa4.xa4.M0.D AVDD sky130_fd_pr__pfet_01v8 ad=0.378 pd=1.78 as=0.378 ps=1.78 w=1.08 l=0.18
X189 CK xaa5.xa3.xb2_0.D AVSS AVSS sky130_fd_pr__nfet_01v8 ad=0.616 pd=3.3 as=0.616 ps=3.3 w=1.08 l=0.18
R67 AVSS m3_37748_111004# sky130_fd_pr__res_generic_m3 w=0.4 l=0.4
X190 xaa6.xe.XA7.MN1.D xaa6.xe.XA7.MP1.G xaa6.xe.XA7.MN0.D AVDD sky130_fd_pr__pfet_01v8 ad=0.616 pd=3.3 as=0.616 ps=3.3 w=1.08 l=0.18
X191 xaa6.xd.XA5.MN0.G xaa6.xd.XA7.MN1.G xaa6.xd.XA4.MP0.D AVDD sky130_fd_pr__pfet_01v8 ad=0.616 pd=3.3 as=0.616 ps=3.3 w=1.08 l=0.18
X192 xaa6.xc.XA1.MN0.D xaa6.xc.XA1.MN0.G AVSS AVSS sky130_fd_pr__nfet_01v8 ad=0.616 pd=3.3 as=0.616 ps=3.3 w=1.08 l=0.18
R68 m3_4628_72444# xaa1.xa4.M0.D sky130_fd_pr__res_generic_m3 w=0.4 l=0.4
R69 m3_13044_60468# AVSS sky130_fd_pr__res_generic_m3 w=0.44 l=0.36
R70 AVSS m3_37748_114844# sky130_fd_pr__res_generic_m3 w=0.4 l=0.4
R71 m3_4628_93564# xaa1.xa4.M0.D sky130_fd_pr__res_generic_m3 w=0.4 l=0.4
X193 xaa6.xe.XA7.MN0.D xaa6.xd.XA1.MN0.G AVDD AVDD sky130_fd_pr__pfet_01v8 ad=0.616 pd=3.3 as=0.616 ps=3.3 w=1.08 l=0.18
R72 AVSS m3_37748_82204# sky130_fd_pr__res_generic_m3 w=0.4 l=0.4
X194 AVSS AVSS AVSS AVSS sky130_fd_pr__nfet_01v8 ad=0 pd=0 as=0.616 ps=3.3 w=1.08 l=0.18
X195 a_1220_74698# a_788_76898# AVSS sky130_fd_pr__res_high_po w=0.72 l=8.8
X196 xaa6.xc.XA7.MN1.D xaa6.xc.XA7.MN1.G xaa6.xc.XA7.MN0.D AVSS sky130_fd_pr__nfet_01v8 ad=0.616 pd=3.3 as=0.616 ps=3.3 w=1.08 l=0.18
X197 AVDD xaa4.xa4.M0.D xaa4.xa2.M0.G AVDD sky130_fd_pr__pfet_01v8 ad=0.378 pd=1.78 as=0.378 ps=1.78 w=1.08 l=0.18
R73 xaa4.xa2.M0.G m3_22620_56068# sky130_fd_pr__res_generic_m3 w=0.44 l=0.36
X198 xaa6.xf.XA7.MN1.G xaa6.xf.XA1.MN0.G AVDD AVDD sky130_fd_pr__pfet_01v8 ad=0.616 pd=3.3 as=0.616 ps=3.3 w=1.08 l=0.18
R74 xaa4.xa2.M0.G m3_22620_59236# sky130_fd_pr__res_generic_m3 w=0.44 l=0.36
X199 xbb1.xa3.M2.D IBPSR_1U xbb1.xa3.M1.D AVSS sky130_fd_pr__nfet_01v8 ad=0.378 pd=1.78 as=0.378 ps=1.78 w=1.08 l=0.18
X200 xaa1.xb1.M0.D xaa1.xa1.M8.D AVDD AVDD sky130_fd_pr__pfet_01v8 ad=0.378 pd=1.78 as=0.616 ps=3.3 w=1.08 l=0.18
X201 xaa6.xc.XA7.MN0.D xaa0.xa5.MN2.G xaa6.xc.XA7.MN2.D AVSS sky130_fd_pr__nfet_01v8 ad=0.616 pd=3.3 as=0.616 ps=3.3 w=1.08 l=0.18
R75 m3_4628_115644# xaa1.xa4.M0.D sky130_fd_pr__res_generic_m3 w=0.4 l=0.4
X202 xaa4.xa4.M0.D xaa4.xa2.M0.D AVDD AVDD sky130_fd_pr__pfet_01v8 ad=0.378 pd=1.78 as=0.378 ps=1.78 w=1.08 l=0.18
X203 xaa5.xb1.MN1.D xaa5.xb1.MN1.G xaa5.xb1.MN0.D AVSS sky130_fd_pr__nfet_01v8 ad=0.616 pd=3.3 as=0.616 ps=3.3 w=1.08 l=0.18
R76 AVSS m3_37748_106204# sky130_fd_pr__res_generic_m3 w=0.4 l=0.4
X204 AVSS AVSS AVSS AVSS sky130_fd_pr__nfet_01v8 ad=0 pd=0 as=0.616 ps=3.3 w=1.08 l=0.18
X205 xbb1.xa3.M0.D IBPSR_1U AVSS AVSS sky130_fd_pr__nfet_01v8 ad=0.378 pd=1.78 as=0.616 ps=3.3 w=1.08 l=0.18
X206 xaa6.xe.XA7.MN2.D PWRUP_1V8 AVSS AVSS sky130_fd_pr__nfet_01v8 ad=0.616 pd=3.3 as=0.616 ps=3.3 w=1.08 l=0.18
X207 xaa6.xc.XA1.MN0.G xaa6.xd.XA7.MN1.D AVSS AVSS sky130_fd_pr__nfet_01v8 ad=0.616 pd=3.3 as=0.616 ps=3.3 w=1.08 l=0.18
X208 AVDD xaa4.xa4.M0.D xaa4.xa2.M0.G AVDD sky130_fd_pr__pfet_01v8 ad=0.378 pd=1.78 as=0.378 ps=1.78 w=1.08 l=0.18
X209 xaa1.xa1.M0.D IBPSR_1U AVSS AVSS sky130_fd_pr__nfet_01v8 ad=0.378 pd=1.78 as=0.616 ps=3.3 w=1.08 l=0.18
X210 xaa6.xe.XA5.MN0.G xaa6.xe.XA7.MN1.G xaa6.xe.XA3.MN0.D AVSS sky130_fd_pr__nfet_01v8 ad=0.616 pd=3.3 as=0.616 ps=3.3 w=1.08 l=0.18