* NGSPICE file created from SUN_PLL.ext - technology: sky130B

* Replacing the lpe port list (../tech/scripts/fixlpe)
.subckt SUN_PLL AVDD AVSS PWRUP_1V8 CK_REF CK IBPSR_1U
*.subckt SUN_PLL PWRUP_1V8 CK_REF CK IBPSR_1U AVSS AVDD
X0 xaa6.xe.XA1.MN0.G xaa6.xf.XA7.MN1.D AVSS AVSS sky130_fd_pr__nfet_01v8 ad=0.616 pd=3.3 as=0.616 ps=3.3 w=1.08 l=0.18
R0 xaa4.xa2_0.M0.G m3_22692_52900# sky130_fd_pr__res_generic_m3 w=0.44 l=0.36
X1 xaa1.xa2.M8.D IBPSR_1U xaa1.xa2.M7.D AVSS sky130_fd_pr__nfet_01v8 ad=0.616 pd=3.3 as=0.378 ps=1.78 w=1.08 l=0.18
X2 xaa4.xa1.M6.D IBPSR_1U xaa4.xa1.M5.D AVSS sky130_fd_pr__nfet_01v8 ad=0.378 pd=1.78 as=0.378 ps=1.78 w=1.08 l=0.18
X3 xaa6.xf.XA6.MN0.G xaa6.xf.XA5.MN0.G AVSS AVSS sky130_fd_pr__nfet_01v8 ad=0.616 pd=3.3 as=0.616 ps=3.3 w=1.08 l=0.18
X4 xaa3.xa5a.MN0.D xaa3.xa2.MN0.D AVSS AVSS sky130_fd_pr__nfet_01v8 ad=0.616 pd=3.3 as=0.616 ps=3.3 w=1.08 l=0.18
X5 AVDD AVDD AVDD AVDD sky130_fd_pr__pfet_01v8 ad=65.7 pd=359 as=0.616 ps=3.3 w=1.08 l=0.18
X6 xaa6.xf.XA7.MN1.G PWRUP_1V8 xaa6.xf.XA1.MN0.D AVSS sky130_fd_pr__nfet_01v8 ad=0.616 pd=3.3 as=0.616 ps=3.3 w=1.08 l=0.18
X7 xaa0.xa3.MP0.D xaa0.xa1.MN2.S AVDD AVDD sky130_fd_pr__pfet_01v8 ad=0.616 pd=3.3 as=0.616 ps=3.3 w=1.08 l=0.18
X8 xaa4.xa4_0.M2.D xaa1.xa3.D xaa4.xa4_0.M1.D AVSS sky130_fd_pr__nfet_01v8 ad=0.378 pd=1.78 as=0.378 ps=1.78 w=1.08 l=0.18
X9 AVDD PWRUP_1V8 xaa6.xd.XA7.MN0.D AVDD sky130_fd_pr__pfet_01v8 ad=0.616 pd=3.3 as=0.616 ps=3.3 w=1.08 l=0.18
X10 xaa6.xe.XA7.MP1.G xaa6.xe.XA7.MN1.G AVDD AVDD sky130_fd_pr__pfet_01v8 ad=0.616 pd=3.3 as=0.616 ps=3.3 w=1.08 l=0.18
X11 xaa4.xa2_1.M0.D xaa4.xa2_0.M0.G xaa4.xa1.M8.D AVSS sky130_fd_pr__nfet_01v8 ad=0.378 pd=1.78 as=0.616 ps=3.3 w=1.08 l=0.18
X12 xaa3.xa2.MN0.D xaa3.xa1c.MN0.D AVSS AVSS sky130_fd_pr__nfet_01v8 ad=0.616 pd=3.3 as=0.616 ps=3.3 w=1.08 l=0.18
X13 xaa6.xd.XA5.MN0.G xaa6.xd.XA7.MP1.G xaa6.xd.XA3.MP0.D AVDD sky130_fd_pr__pfet_01v8 ad=0.616 pd=3.3 as=0.616 ps=3.3 w=1.08 l=0.18
X14 xaa6.xf.XA5.MN0.G xaa6.xf.XA7.MP1.G xaa6.xf.XA4.MN0.D AVSS sky130_fd_pr__nfet_01v8 ad=0.616 pd=3.3 as=0.616 ps=3.3 w=1.08 l=0.18
X15 xaa5.xb2_1.MN0.D xaa5.xb2_0.MN0.D xaa4.xa2_0.M0.G AVDD sky130_fd_pr__pfet_01v8 ad=0.616 pd=3.3 as=0.616 ps=3.3 w=1.08 l=0.18
X16 xaa4.xa1.M8.D IBPSR_1U xaa4.xa1.M7.D AVSS sky130_fd_pr__nfet_01v8 ad=0.616 pd=3.3 as=0.378 ps=1.78 w=1.08 l=0.18
R1 AVSS m3_37748_78364# sky130_fd_pr__res_generic_m3 w=0.4 l=0.4
X17 xaa4.xa2_0.M8.D xaa4.xa2_0.M0.G xaa4.xa2_0.M7.D AVSS sky130_fd_pr__nfet_01v8 ad=0.616 pd=3.3 as=0.378 ps=1.78 w=1.08 l=0.18
X18 xaa6.xe.XA7.MN1.D xaa6.xe.XA7.MN1.G xaa6.xe.XA6.MP0.D AVDD sky130_fd_pr__pfet_01v8 ad=0.616 pd=3.3 as=0.616 ps=3.3 w=1.08 l=0.18
X19 xaa5.xb3.MP1.D xaa5.xb3.MP1.D xaa5.xb3.MP1.D AVDD sky130_fd_pr__pfet_01v8 ad=1.23 pd=6.6 as=0.616 ps=3.3 w=1.08 l=0.18
R2 m3_4628_81084# xaa1.xa4.M0.D sky130_fd_pr__res_generic_m3 w=0.4 l=0.4
X20 xaa6.xe.XA3.MP0.D xaa6.xe.XA7.MN1.D AVDD AVDD sky130_fd_pr__pfet_01v8 ad=0.616 pd=3.3 as=0.616 ps=3.3 w=1.08 l=0.18
X21 xaa6.xd.XA4.MP0.D xaa6.xd.XA6.MN0.G AVDD AVDD sky130_fd_pr__pfet_01v8 ad=0.616 pd=3.3 as=0.616 ps=3.3 w=1.08 l=0.18
X22 a_2084_70022# xaa1.xa3.D AVSS sky130_fd_pr__res_high_po w=0.72 l=8.8
X23 xaa5.xb2_2.MN0.D xaa5.xb2_1.MN0.D xaa4.xa2_0.M0.G AVDD sky130_fd_pr__pfet_01v8 ad=0.616 pd=3.3 as=0.616 ps=3.3 w=1.08 l=0.18
R3 m3_13116_61524# AVSS sky130_fd_pr__res_generic_m3 w=0.44 l=0.36
X24 xaa6.xe.XA6.MP0.D xaa6.xe.XA6.MN0.G AVDD AVDD sky130_fd_pr__pfet_01v8 ad=0.616 pd=3.3 as=0.616 ps=3.3 w=1.08 l=0.18
X25 xaa5.xb1.MN1.G xaa5.xa3.xb1_0.G xaa4.xa2_0.M0.G AVDD sky130_fd_pr__pfet_01v8 ad=0.616 pd=3.3 as=0.616 ps=3.3 w=1.08 l=0.18
R4 AVSS m3_37748_73564# sky130_fd_pr__res_generic_m3 w=0.4 l=0.4
X26 xaa6.xc.XA7.MP1.G xaa6.xc.XA7.MN1.G AVSS AVSS sky130_fd_pr__nfet_01v8 ad=0.616 pd=3.3 as=0.616 ps=3.3 w=1.08 l=0.18
X27 xaa1.xa2.M7.D IBPSR_1U xaa1.xa2.M6.D AVSS sky130_fd_pr__nfet_01v8 ad=0.378 pd=1.78 as=0.378 ps=1.78 w=1.08 l=0.18
R5 m3_4628_89724# xaa1.xa4.M0.D sky130_fd_pr__res_generic_m3 w=0.4 l=0.4
X28 xaa1.xb2.M0.D xaa1.xa1.M8.D AVDD AVDD sky130_fd_pr__pfet_01v8 ad=0.378 pd=1.78 as=0.616 ps=3.3 w=1.08 l=0.18
X29 xaa1.xa1.M5.D IBPSR_1U xaa1.xa1.M4.D AVSS sky130_fd_pr__nfet_01v8 ad=0.378 pd=1.78 as=0.378 ps=1.78 w=1.08 l=0.18
X30 xaa4.xa4_0.M8.D xaa1.xa3.D xaa4.xa4_1.M7.D AVSS sky130_fd_pr__nfet_01v8 ad=0.616 pd=3.3 as=0.378 ps=1.78 w=1.08 l=0.18
R6 xaa4.xa2_0.M0.G m3_22692_61348# sky130_fd_pr__res_generic_m3 w=0.44 l=0.36
X31 a_356_74698# a_n76_76898# AVSS sky130_fd_pr__res_high_po w=0.72 l=8.8
R7 m3_13116_55188# AVSS sky130_fd_pr__res_generic_m3 w=0.44 l=0.36
X32 xaa6.xc.XA7.MN1.D xaa6.xc.XA7.MP1.G xaa6.xc.XA6.MN0.D AVSS sky130_fd_pr__nfet_01v8 ad=0.616 pd=3.3 as=0.616 ps=3.3 w=1.08 l=0.18
X33 xaa1.xa2.M5.D IBPSR_1U xaa1.xa2.M4.D AVSS sky130_fd_pr__nfet_01v8 ad=0.378 pd=1.78 as=0.378 ps=1.78 w=1.08 l=0.18
R8 m3_13116_58356# AVSS sky130_fd_pr__res_generic_m3 w=0.44 l=0.36
X34 xaa6.xc.XA3.MN0.D xaa6.xc.XA7.MN1.D AVSS AVSS sky130_fd_pr__nfet_01v8 ad=0.616 pd=3.3 as=0.616 ps=3.3 w=1.08 l=0.18
X35 xaa1.xa1.M3.D IBPSR_1U xaa1.xa1.M2.D AVSS sky130_fd_pr__nfet_01v8 ad=0.378 pd=1.78 as=0.378 ps=1.78 w=1.08 l=0.18
X36 xaa5.xa3.xb2_0.D xaa5.xa3.xb2_0.G AVSS AVSS sky130_fd_pr__nfet_01v8 ad=0.616 pd=3.3 as=0.616 ps=3.3 w=1.08 l=0.18
X37 a_n508_70022# xbb0.xa1.XA1.N AVSS sky130_fd_pr__res_high_po w=0.72 l=8.8
X38 a_2084_74698# a_1652_76898# AVSS sky130_fd_pr__res_high_po w=0.72 l=8.8
X39 xaa6.xc.XA6.MN0.D xaa6.xc.XA6.MN0.G AVSS AVSS sky130_fd_pr__nfet_01v8 ad=0.616 pd=3.3 as=0.616 ps=3.3 w=1.08 l=0.18
R9 m3_4628_84924# xaa1.xa4.M0.D sky130_fd_pr__res_generic_m3 w=0.4 l=0.4
X40 xaa4.xa2_0.M7.D xaa4.xa2_0.M0.G xaa4.xa2_0.M6.D AVSS sky130_fd_pr__nfet_01v8 ad=0.378 pd=1.78 as=0.378 ps=1.78 w=1.08 l=0.18
X41 xaa6.xf.XA7.MP1.G xaa6.xf.XA7.MN1.G AVDD AVDD sky130_fd_pr__pfet_01v8 ad=0.616 pd=3.3 as=0.616 ps=3.3 w=1.08 l=0.18
X42 AVSS AVSS AVSS AVSS sky130_fd_pr__nfet_01v8 ad=60.3 pd=323 as=0.616 ps=3.3 w=1.08 l=0.18
X43 xaa4.xa1.M5.D IBPSR_1U xaa4.xa1.M4.D AVSS sky130_fd_pr__nfet_01v8 ad=0.378 pd=1.78 as=0.378 ps=1.78 w=1.08 l=0.18
R10 m3_4628_76284# xaa1.xa4.M0.D sky130_fd_pr__res_generic_m3 w=0.4 l=0.4
X44 xaa6.xd.XA7.MN2.D PWRUP_1V8 AVSS AVSS sky130_fd_pr__nfet_01v8 ad=0.616 pd=3.3 as=0.616 ps=3.3 w=1.08 l=0.18
X45 xaa4.xa2_1.M7.D xaa4.xa2_0.M0.G xaa4.xa2_1.M6.D AVSS sky130_fd_pr__nfet_01v8 ad=0.378 pd=1.78 as=0.378 ps=1.78 w=1.08 l=0.18
X46 xaa6.xd.XA5.MN0.G xaa6.xd.XA7.MN1.G xaa6.xd.XA3.MN0.D AVSS sky130_fd_pr__nfet_01v8 ad=0.616 pd=3.3 as=0.616 ps=3.3 w=1.08 l=0.18
X47 xaa4.xa2_0.M5.D xaa4.xa2_0.M0.G xaa4.xa2_0.M4.D AVSS sky130_fd_pr__nfet_01v8 ad=0.378 pd=1.78 as=0.378 ps=1.78 w=1.08 l=0.18
X48 xaa5.xb2_1.MN0.D xaa5.xb2_0.MN0.D AVSS AVSS sky130_fd_pr__nfet_01v8 ad=0.616 pd=3.3 as=0.616 ps=3.3 w=1.08 l=0.18
X49 xaa6.xf.XA7.MN1.D xaa6.xf.XA7.MN1.G xaa6.xf.XA6.MP0.D AVDD sky130_fd_pr__pfet_01v8 ad=0.616 pd=3.3 as=0.616 ps=3.3 w=1.08 l=0.18
R11 AVSS m3_37748_86044# sky130_fd_pr__res_generic_m3 w=0.4 l=0.4
X50 xaa4.xa1.M3.D IBPSR_1U xaa4.xa1.M2.D AVSS sky130_fd_pr__nfet_01v8 ad=0.378 pd=1.78 as=0.378 ps=1.78 w=1.08 l=0.18
X51 xaa6.xf.XA3.MP0.D xaa6.xf.XA7.MN1.D AVDD AVDD sky130_fd_pr__pfet_01v8 ad=0.616 pd=3.3 as=0.616 ps=3.3 w=1.08 l=0.18
X52 IBPSR_1U IBPSR_1U xbb1.xa3.M7.D AVSS sky130_fd_pr__nfet_01v8 ad=0.616 pd=3.3 as=0.378 ps=1.78 w=1.08 l=0.18
X53 AVSS AVSS AVSS AVSS sky130_fd_pr__nfet_01v8 ad=0.616 pd=3.3 as=0 ps=0 w=1.08 l=0.18
R12 AVSS m3_37748_89884# sky130_fd_pr__res_generic_m3 w=0.4 l=0.4
R13 m3_4628_71484# xaa1.xa3.D sky130_fd_pr__res_generic_m3 w=0.4 l=0.4
X54 xaa6.xf.XA6.MP0.D xaa6.xf.XA6.MN0.G AVDD AVDD sky130_fd_pr__pfet_01v8 ad=0.616 pd=3.3 as=0.616 ps=3.3 w=1.08 l=0.18
X55 xaa6.xd.XA4.MN0.D xaa6.xd.XA6.MN0.G AVSS AVSS sky130_fd_pr__nfet_01v8 ad=0.616 pd=3.3 as=0.616 ps=3.3 w=1.08 l=0.18
X56 xaa5.xa3.xc1a.D xaa5.xa3.xb2_0.D AVDD AVDD sky130_fd_pr__pfet_01v8 ad=0.616 pd=3.3 as=0.616 ps=3.3 w=1.08 l=0.18
X57 xaa5.xb2_2.MN0.D xaa5.xb2_1.MN0.D AVSS AVSS sky130_fd_pr__nfet_01v8 ad=0.616 pd=3.3 as=0.616 ps=3.3 w=1.08 l=0.18
X58 xaa6.xg.XA1.MN0.D CK AVSS AVSS sky130_fd_pr__nfet_01v8 ad=0.616 pd=3.3 as=0.616 ps=3.3 w=1.08 l=0.18
X59 AVDD AVDD AVDD AVDD sky130_fd_pr__pfet_01v8 ad=0.616 pd=3.3 as=0 ps=0 w=1.08 l=0.18
X60 CK xaa5.xa3.xb2_0.D AVDD AVDD sky130_fd_pr__pfet_01v8 ad=0.616 pd=3.3 as=0.616 ps=3.3 w=1.08 l=0.18
X61 xaa0.xa1.MN0.D xaa0.xa1.MN0.G AVSS AVSS sky130_fd_pr__nfet_01v8 ad=0.616 pd=3.3 as=0.616 ps=3.3 w=1.08 l=0.18
X62 xbb1.xa3.M6.D IBPSR_1U xbb1.xa3.M5.D AVSS sky130_fd_pr__nfet_01v8 ad=0.378 pd=1.78 as=0.378 ps=1.78 w=1.08 l=0.18
X63 xaa6.xd.XA1.MN0.G xaa6.xe.XA7.MN1.D AVSS AVSS sky130_fd_pr__nfet_01v8 ad=0.616 pd=3.3 as=0.616 ps=3.3 w=1.08 l=0.18
X64 xaa5.xb1.MN1.G xaa5.xa3.xb1_0.G AVSS AVSS sky130_fd_pr__nfet_01v8 ad=0.616 pd=3.3 as=0.616 ps=3.3 w=1.08 l=0.18
R14 AVSS m3_37748_81244# sky130_fd_pr__res_generic_m3 w=0.4 l=0.4
X65 AVDD PWRUP_1V8 xaa6.xg.XA7.MN0.D AVDD sky130_fd_pr__pfet_01v8 ad=0.616 pd=3.3 as=0.616 ps=3.3 w=1.08 l=0.18
X66 xaa4.xa4_1.M5.D xaa1.xa3.D xaa4.xa4_1.M4.D AVSS sky130_fd_pr__nfet_01v8 ad=0.378 pd=1.78 as=0.378 ps=1.78 w=1.08 l=0.18
X67 xaa6.xc.XA7.MN1.G xaa6.xc.XA1.MN0.G AVDD AVDD sky130_fd_pr__pfet_01v8 ad=0.616 pd=3.3 as=0.616 ps=3.3 w=1.08 l=0.18
X68 xaa6.xe.XA6.MN0.G xaa6.xe.XA5.MN0.G AVSS AVSS sky130_fd_pr__nfet_01v8 ad=0.616 pd=3.3 as=0.616 ps=3.3 w=1.08 l=0.18
X69 xaa6.xg.XA5.MN0.G xaa6.xg.XA7.MP1.G xaa6.xg.XA3.MP0.D AVDD sky130_fd_pr__pfet_01v8 ad=0.616 pd=3.3 as=0.616 ps=3.3 w=1.08 l=0.18
X70 xaa4.xa4_0.M8.D xaa4.xa2_0.M8.D AVDD AVDD sky130_fd_pr__pfet_01v8 ad=0.518 pd=3.12 as=0.518 ps=3.12 w=1.08 l=0.36
X71 xaa6.xe.XA7.MN1.G PWRUP_1V8 xaa6.xe.XA1.MN0.D AVSS sky130_fd_pr__nfet_01v8 ad=0.616 pd=3.3 as=0.616 ps=3.3 w=1.08 l=0.18
X72 xaa1.xa4.M0.D xaa1.xa4.M0.G AVSS AVSS sky130_fd_pr__nfet_01v8 ad=0.378 pd=1.78 as=0.616 ps=3.3 w=1.08 l=0.18
X73 xaa4.xa2_0.M8.D xaa4.xa2_0.M8.D AVDD AVDD sky130_fd_pr__pfet_01v8 ad=0.518 pd=3.12 as=0.518 ps=3.12 w=1.08 l=0.36
X74 xaa4.xa4_1.M3.D xaa1.xa3.D xaa4.xa4_1.M2.D AVSS sky130_fd_pr__nfet_01v8 ad=0.378 pd=1.78 as=0.378 ps=1.78 w=1.08 l=0.18
X75 xaa3.xa1b.MN0.D PWRUP_1V8 AVDD AVDD sky130_fd_pr__pfet_01v8 ad=0.616 pd=3.3 as=0.616 ps=3.3 w=1.08 l=0.18
X76 AVDD AVDD AVDD AVDD sky130_fd_pr__pfet_01v8 ad=0.616 pd=3.3 as=0 ps=0 w=1.08 l=0.18
X77 xaa1.xa2.M0.D IBPSR_1U AVSS AVSS sky130_fd_pr__nfet_01v8 ad=0.378 pd=1.78 as=0.616 ps=3.3 w=1.08 l=0.18
X78 xaa6.xe.XA5.MN0.G xaa6.xe.XA7.MP1.G xaa6.xe.XA4.MN0.D AVSS sky130_fd_pr__nfet_01v8 ad=0.616 pd=3.3 as=0.616 ps=3.3 w=1.08 l=0.18
X79 a_1220_70022# a_1652_72222# AVSS sky130_fd_pr__res_high_po w=0.72 l=8.8
X80 xaa6.xg.XA7.MN1.D xaa6.xg.XA7.MN1.G xaa6.xg.XA7.MN0.D AVSS sky130_fd_pr__nfet_01v8 ad=0.616 pd=3.3 as=0.616 ps=3.3 w=1.08 l=0.18
X81 xaa6.xg.XA4.MP0.D xaa6.xg.XA4.MN0.G AVDD AVDD sky130_fd_pr__pfet_01v8 ad=0.616 pd=3.3 as=0.616 ps=3.3 w=1.08 l=0.18
R15 m3_4628_92604# xaa1.xa4.M0.D sky130_fd_pr__res_generic_m3 w=0.4 l=0.4
X82 xaa6.xc.XA7.MN1.D xaa6.xc.XA7.MP1.G xaa6.xc.XA7.MN0.D AVDD sky130_fd_pr__pfet_01v8 ad=0.616 pd=3.3 as=0.616 ps=3.3 w=1.08 l=0.18
X83 xaa6.xf.XA7.MP1.G xaa6.xf.XA7.MN1.G AVSS AVSS sky130_fd_pr__nfet_01v8 ad=0.616 pd=3.3 as=0.616 ps=3.3 w=1.08 l=0.18
X84 xaa4.xa1.M0.D IBPSR_1U AVSS AVSS sky130_fd_pr__nfet_01v8 ad=0.378 pd=1.78 as=0.616 ps=3.3 w=1.08 l=0.18
X85 xaa6.xg.XA7.MN0.D xaa6.xg.XA7.MN0.G xaa6.xg.XA7.MN2.D AVSS sky130_fd_pr__nfet_01v8 ad=0.616 pd=3.3 as=0.616 ps=3.3 w=1.08 l=0.18
X86 xaa4.xa2_0.M0.G xaa4.xa4_0.M8.D AVDD AVDD sky130_fd_pr__pfet_01v8 ad=0.518 pd=3.12 as=0.518 ps=3.12 w=1.08 l=0.36
X87 xaa1.xa2.M2.D IBPSR_1U xaa1.xa2.M1.D AVSS sky130_fd_pr__nfet_01v8 ad=0.378 pd=1.78 as=0.378 ps=1.78 w=1.08 l=0.18
X88 xaa0.xa1.MP1.D xaa0.xa1.MN0.G AVDD AVDD sky130_fd_pr__pfet_01v8 ad=0.616 pd=3.3 as=0.616 ps=3.3 w=1.08 l=0.18
X89 xaa4.xa2_1.M2.D xaa4.xa2_0.M0.G xaa4.xa2_1.M1.D AVSS sky130_fd_pr__nfet_01v8 ad=0.378 pd=1.78 as=0.378 ps=1.78 w=1.08 l=0.18
R16 xaa4.xa2_0.M0.G m3_22692_60292# sky130_fd_pr__res_generic_m3 w=0.44 l=0.36
X90 xaa6.xc.XA7.MN0.D xaa0.xa5.MN2.G AVDD AVDD sky130_fd_pr__pfet_01v8 ad=0.616 pd=3.3 as=0.616 ps=3.3 w=1.08 l=0.18
R17 xaa4.xa2_0.M0.G m3_22692_63460# sky130_fd_pr__res_generic_m3 w=0.44 l=0.36
X91 xaa4.xa2_0.M0.D xaa4.xa2_0.M0.G xaa4.xa1.M8.D AVSS sky130_fd_pr__nfet_01v8 ad=0.378 pd=1.78 as=0.616 ps=3.3 w=1.08 l=0.18
X92 xaa6.xf.XA7.MN1.D xaa6.xf.XA7.MP1.G xaa6.xf.XA6.MN0.D AVSS sky130_fd_pr__nfet_01v8 ad=0.616 pd=3.3 as=0.616 ps=3.3 w=1.08 l=0.18
X93 AVDD AVDD AVDD AVDD sky130_fd_pr__pfet_01v8 ad=0 pd=0 as=0.616 ps=3.3 w=1.08 l=0.18
R18 AVSS m3_37748_76444# sky130_fd_pr__res_generic_m3 w=0.4 l=0.4
X94 xaa6.xf.XA3.MN0.D xaa6.xf.XA7.MN1.D AVSS AVSS sky130_fd_pr__nfet_01v8 ad=0.616 pd=3.3 as=0.616 ps=3.3 w=1.08 l=0.18
X95 AVSS AVSS AVSS AVSS sky130_fd_pr__nfet_01v8 ad=0 pd=0 as=0.616 ps=3.3 w=1.08 l=0.18
X96 xaa5.xb1.MN1.D PWRUP_1V8 xaa4.xa2_0.M0.G AVDD sky130_fd_pr__pfet_01v8 ad=0.616 pd=3.3 as=0.616 ps=3.3 w=1.08 l=0.18
X97 AVDD PWRUP_1V8 xaa6.xe.XA7.MN0.D AVDD sky130_fd_pr__pfet_01v8 ad=0.616 pd=3.3 as=0.616 ps=3.3 w=1.08 l=0.18
X98 xbb1.xa3.M3.D IBPSR_1U xbb1.xa3.M2.D AVSS sky130_fd_pr__nfet_01v8 ad=0.378 pd=1.78 as=0.378 ps=1.78 w=1.08 l=0.18
X99 xaa6.xe.XA5.MN0.G xaa6.xe.XA7.MP1.G xaa6.xe.XA3.MP0.D AVDD sky130_fd_pr__pfet_01v8 ad=0.616 pd=3.3 as=0.616 ps=3.3 w=1.08 l=0.18
X100 xaa6.xf.XA6.MN0.D xaa6.xf.XA6.MN0.G AVSS AVSS sky130_fd_pr__nfet_01v8 ad=0.616 pd=3.3 as=0.616 ps=3.3 w=1.08 l=0.18
X101 xaa5.xb2_3.MN0.D xaa5.xb2_2.MN0.D xaa4.xa2_0.M0.G AVDD sky130_fd_pr__pfet_01v8 ad=0.616 pd=3.3 as=0.616 ps=3.3 w=1.08 l=0.18
X102 xaa4.xa2_0.M2.D xaa4.xa2_0.M0.G xaa4.xa2_0.M1.D AVSS sky130_fd_pr__nfet_01v8 ad=0.378 pd=1.78 as=0.378 ps=1.78 w=1.08 l=0.18
X103 xaa6.xd.XA7.MN1.G xaa6.xd.XA1.MN0.G AVDD AVDD sky130_fd_pr__pfet_01v8 ad=0.616 pd=3.3 as=0.616 ps=3.3 w=1.08 l=0.18
X104 xbb1.xa3.M1.D IBPSR_1U xbb1.xa3.M0.D AVSS sky130_fd_pr__nfet_01v8 ad=0.378 pd=1.78 as=0.378 ps=1.78 w=1.08 l=0.18
X105 xaa4.xa4_0.M4.D xaa1.xa3.D xaa4.xa4_0.M3.D AVSS sky130_fd_pr__nfet_01v8 ad=0.378 pd=1.78 as=0.378 ps=1.78 w=1.08 l=0.18
R19 AVSS m3_37748_71644# sky130_fd_pr__res_generic_m3 w=0.4 l=0.4
R20 m3_13116_54132# AVSS sky130_fd_pr__res_generic_m3 w=0.44 l=0.36
R21 m3_13116_57300# AVSS sky130_fd_pr__res_generic_m3 w=0.44 l=0.36
X106 xaa6.xe.XA4.MP0.D xaa6.xe.XA6.MN0.G AVDD AVDD sky130_fd_pr__pfet_01v8 ad=0.616 pd=3.3 as=0.616 ps=3.3 w=1.08 l=0.18
X107 xaa5.xb2_4.MN0.D xaa5.xb2_3.MN0.D xaa4.xa2_0.M0.G AVDD sky130_fd_pr__pfet_01v8 ad=0.616 pd=3.3 as=0.616 ps=3.3 w=1.08 l=0.18
X108 AVSS AVSS AVSS AVSS sky130_fd_pr__nfet_01v8 ad=0 pd=0 as=0.616 ps=3.3 w=1.08 l=0.18
R22 m3_4628_87804# xaa1.xa4.M0.D sky130_fd_pr__res_generic_m3 w=0.4 l=0.4
R23 AVSS m3_37748_92764# sky130_fd_pr__res_generic_m3 w=0.4 l=0.4
X109 xaa6.xc.XA7.MN2.D PWRUP_1V8 AVSS AVSS sky130_fd_pr__nfet_01v8 ad=0.616 pd=3.3 as=0.616 ps=3.3 w=1.08 l=0.18
R24 m3_4628_79164# xaa1.xa4.M0.D sky130_fd_pr__res_generic_m3 w=0.4 l=0.4
X110 xaa6.xc.XA5.MN0.G xaa6.xc.XA7.MN1.G xaa6.xc.XA3.MN0.D AVSS sky130_fd_pr__nfet_01v8 ad=0.616 pd=3.3 as=0.616 ps=3.3 w=1.08 l=0.18
X111 xaa5.xa3.xb2_0.D xaa5.xa3.xb2_0.G AVSS AVSS sky130_fd_pr__nfet_01v8 ad=0.616 pd=3.3 as=0.616 ps=3.3 w=1.08 l=0.18
X112 xaa6.xd.XA7.MN1.D xaa6.xd.XA7.MP1.G xaa6.xd.XA7.MN0.D AVDD sky130_fd_pr__pfet_01v8 ad=0.616 pd=3.3 as=0.616 ps=3.3 w=1.08 l=0.18
X113 xaa4.xa4_1.M2.D xaa1.xa3.D xaa4.xa4_1.M1.D AVSS sky130_fd_pr__nfet_01v8 ad=0.378 pd=1.78 as=0.378 ps=1.78 w=1.08 l=0.18
X114 xaa4.xa2_0.M0.G xaa4.xa4_0.M8.D AVDD AVDD sky130_fd_pr__pfet_01v8 ad=0.518 pd=3.12 as=0.518 ps=3.12 w=1.08 l=0.36
R25 xaa4.xa2_0.M0.G m3_22692_57124# sky130_fd_pr__res_generic_m3 w=0.44 l=0.36
X115 xaa4.xa4_0.M8.D xaa4.xa2_0.M8.D AVDD AVDD sky130_fd_pr__pfet_01v8 ad=0.518 pd=3.12 as=0.518 ps=3.12 w=1.08 l=0.36
X116 xaa4.xa2_0.M8.D xaa4.xa2_0.M8.D AVDD AVDD sky130_fd_pr__pfet_01v8 ad=0.518 pd=3.12 as=0.518 ps=3.12 w=1.08 l=0.36
X117 xaa6.xd.XA7.MN0.D xaa6.xc.XA1.MN0.G AVDD AVDD sky130_fd_pr__pfet_01v8 ad=0.616 pd=3.3 as=0.616 ps=3.3 w=1.08 l=0.18
X118 xaa6.xc.XA4.MN0.D xaa6.xc.XA6.MN0.G AVSS AVSS sky130_fd_pr__nfet_01v8 ad=0.616 pd=3.3 as=0.616 ps=3.3 w=1.08 l=0.18
X119 xaa1.xa1.M7.D IBPSR_1U xaa1.xa1.M6.D AVSS sky130_fd_pr__nfet_01v8 ad=0.378 pd=1.78 as=0.378 ps=1.78 w=1.08 l=0.18
X120 xaa5.xa4.MN0.D xaa5.xa3.xb1_0.D AVSS AVSS sky130_fd_pr__nfet_01v8 ad=0.616 pd=3.3 as=0.616 ps=3.3 w=1.08 l=0.18
R26 m3_4628_74364# xaa1.xa4.M0.D sky130_fd_pr__res_generic_m3 w=0.4 l=0.4
X121 AVDD AVDD AVDD AVDD sky130_fd_pr__pfet_01v8 ad=0 pd=0 as=0.616 ps=3.3 w=1.08 l=0.18
X122 AVDD PWRUP_1V8 xaa6.xf.XA7.MN0.D AVDD sky130_fd_pr__pfet_01v8 ad=0.616 pd=3.3 as=0.616 ps=3.3 w=1.08 l=0.18
R27 AVSS m3_37748_84124# sky130_fd_pr__res_generic_m3 w=0.4 l=0.4
X123 xaa6.xf.XA5.MN0.G xaa6.xf.XA7.MP1.G xaa6.xf.XA3.MP0.D AVDD sky130_fd_pr__pfet_01v8 ad=0.616 pd=3.3 as=0.616 ps=3.3 w=1.08 l=0.18
X124 xaa4.xa2_0.M0.G xaa4.xa4_0.M8.D AVDD AVDD sky130_fd_pr__pfet_01v8 ad=0.518 pd=3.12 as=0.518 ps=3.12 w=1.08 l=0.36
X125 xaa5.xb1.MN0.D PWRUP_1V8 AVSS AVSS sky130_fd_pr__nfet_01v8 ad=0.616 pd=3.3 as=0.616 ps=3.3 w=1.08 l=0.18
X126 xaa4.xa2_0.M0.G xaa4.xa4_0.M8.D AVDD AVDD sky130_fd_pr__pfet_01v8 ad=0.518 pd=3.12 as=0.518 ps=3.12 w=1.08 l=0.36
X127 xaa3.xa6.MN0.D xaa3.xa5a.MN0.D AVDD AVDD sky130_fd_pr__pfet_01v8 ad=0.616 pd=3.3 as=0.616 ps=3.3 w=1.08 l=0.18
X128 IBPSR_1U xaa3.xa1b.MN0.D AVSS AVSS sky130_fd_pr__nfet_01v8 ad=0.616 pd=3.3 as=0.616 ps=3.3 w=1.08 l=0.18
X129 a_356_70022# a_n76_72222# AVSS sky130_fd_pr__res_high_po w=0.72 l=8.8
R28 AVSS m3_37748_87964# sky130_fd_pr__res_generic_m3 w=0.4 l=0.4
X130 xaa5.xb2_3.MN0.D xaa5.xb2_2.MN0.D AVSS AVSS sky130_fd_pr__nfet_01v8 ad=0.616 pd=3.3 as=0.616 ps=3.3 w=1.08 l=0.18
X131 xaa6.xd.XA1.MN0.D xaa6.xd.XA1.MN0.G AVSS AVSS sky130_fd_pr__nfet_01v8 ad=0.616 pd=3.3 as=0.616 ps=3.3 w=1.08 l=0.18
X132 xaa4.xa1.M7.D IBPSR_1U xaa4.xa1.M6.D AVSS sky130_fd_pr__nfet_01v8 ad=0.378 pd=1.78 as=0.378 ps=1.78 w=1.08 l=0.18
X133 xaa6.xf.XA4.MP0.D xaa6.xf.XA6.MN0.G AVDD AVDD sky130_fd_pr__pfet_01v8 ad=0.616 pd=3.3 as=0.616 ps=3.3 w=1.08 l=0.18
X134 a_356_74698# a_788_76898# AVSS sky130_fd_pr__res_high_po w=0.72 l=8.8
R29 m3_4628_90684# xaa1.xa4.M0.D sky130_fd_pr__res_generic_m3 w=0.4 l=0.4
X135 a_2084_70022# a_1652_72222# AVSS sky130_fd_pr__res_high_po w=0.72 l=8.8
X136 xaa3.xa7.MN0.D xaa3.xa6.MN0.D AVDD AVDD sky130_fd_pr__pfet_01v8 ad=0.616 pd=3.3 as=0.616 ps=3.3 w=1.08 l=0.18
X137 xaa3.xa9.MN0.D xaa1.xa4.M0.G AVDD AVDD sky130_fd_pr__pfet_01v8 ad=0.616 pd=3.3 as=0.616 ps=3.3 w=1.08 l=0.18
X138 xaa6.xe.XA7.MP1.G xaa6.xe.XA7.MN1.G AVSS AVSS sky130_fd_pr__nfet_01v8 ad=0.616 pd=3.3 as=0.616 ps=3.3 w=1.08 l=0.18
X139 xaa5.xb2_4.MN0.D xaa5.xb2_3.MN0.D AVSS AVSS sky130_fd_pr__nfet_01v8 ad=0.616 pd=3.3 as=0.616 ps=3.3 w=1.08 l=0.18
X140 xaa4.xa2_0.M0.G xaa4.xa4_0.M8.D AVDD AVDD sky130_fd_pr__pfet_01v8 ad=0.518 pd=3.12 as=0.518 ps=3.12 w=1.08 l=0.36
R30 m3_4628_69564# xaa1.xa3.D sky130_fd_pr__res_generic_m3 w=0.4 l=0.4
X141 xaa4.xa4_0.M8.D xaa4.xa2_0.M8.D AVDD AVDD sky130_fd_pr__pfet_01v8 ad=0.518 pd=3.12 as=0.518 ps=3.12 w=1.08 l=0.36
X142 xaa5.xa3.xb1_0.D xaa5.xa3.xb2_0.D xaa5.xa3.xc1a.D AVDD sky130_fd_pr__pfet_01v8 ad=0.616 pd=3.3 as=0.616 ps=3.3 w=1.08 l=0.18
X143 xaa4.xa2_0.M8.D xaa4.xa2_0.M8.D AVDD AVDD sky130_fd_pr__pfet_01v8 ad=0.518 pd=3.12 as=0.518 ps=3.12 w=1.08 l=0.36
X144 xaa6.xe.XA7.MN1.D xaa6.xe.XA7.MP1.G xaa6.xe.XA6.MN0.D AVSS sky130_fd_pr__nfet_01v8 ad=0.616 pd=3.3 as=0.616 ps=3.3 w=1.08 l=0.18
X145 xaa6.xd.XA7.MN1.D xaa6.xd.XA7.MN1.G xaa6.xd.XA7.MN0.D AVSS sky130_fd_pr__nfet_01v8 ad=0.616 pd=3.3 as=0.616 ps=3.3 w=1.08 l=0.18
X146 xaa6.xf.XA1.MN0.G xaa6.xg.XA7.MN1.D AVSS AVSS sky130_fd_pr__nfet_01v8 ad=0.616 pd=3.3 as=0.616 ps=3.3 w=1.08 l=0.18
X147 xaa6.xg.XA3.MN1.G CK AVDD AVDD sky130_fd_pr__pfet_01v8 ad=0.616 pd=3.3 as=0.616 ps=3.3 w=1.08 l=0.18
X148 xaa6.xe.XA3.MN0.D xaa6.xe.XA7.MN1.D AVSS AVSS sky130_fd_pr__nfet_01v8 ad=0.616 pd=3.3 as=0.616 ps=3.3 w=1.08 l=0.18
X149 xaa6.xg.XA5.MN0.D xaa6.xg.XA5.MN0.G AVSS AVSS sky130_fd_pr__nfet_01v8 ad=0.616 pd=3.3 as=0.616 ps=3.3 w=1.08 l=0.18
R31 li_4836_57412# xaa3.xa5a.MN0.D sky130_fd_pr__res_generic_l1 w=0.44 l=0.36
R32 AVSS m3_37748_79324# sky130_fd_pr__res_generic_m3 w=0.4 l=0.4
X150 xaa0.xa5.MN0.D xaa0.xa1.MN0.G AVSS AVSS sky130_fd_pr__nfet_01v8 ad=0.616 pd=3.3 as=0.616 ps=3.3 w=1.08 l=0.18
X151 xaa0.xa5.MN2.G xaa6.xc.XA7.MN1.D AVDD AVDD sky130_fd_pr__pfet_01v8 ad=0.616 pd=3.3 as=0.616 ps=3.3 w=1.08 l=0.18
X152 xaa6.xg.XA3.MN1.G PWRUP_1V8 xaa6.xg.XA1.MN0.D AVSS sky130_fd_pr__nfet_01v8 ad=0.616 pd=3.3 as=0.616 ps=3.3 w=1.08 l=0.18
X153 xaa4.xa4_1.M7.D xaa1.xa3.D xaa4.xa4_1.M6.D AVSS sky130_fd_pr__nfet_01v8 ad=0.378 pd=1.78 as=0.378 ps=1.78 w=1.08 l=0.18
X154 a_n508_74698# a_n76_76898# AVSS sky130_fd_pr__res_high_po w=0.72 l=8.8
X155 xaa6.xc.XA6.MN0.G xaa6.xc.XA5.MN0.G AVDD AVDD sky130_fd_pr__pfet_01v8 ad=0.616 pd=3.3 as=0.616 ps=3.3 w=1.08 l=0.18
R33 m3_13116_60468# AVSS sky130_fd_pr__res_generic_m3 w=0.44 l=0.36
X156 xaa0.xa1.MN2.D CK_REF xaa0.xa1.MN2.S AVSS sky130_fd_pr__nfet_01v8 ad=0.616 pd=3.3 as=0.616 ps=3.3 w=1.08 l=0.18
X157 xaa6.xe.XA6.MN0.D xaa6.xe.XA6.MN0.G AVSS AVSS sky130_fd_pr__nfet_01v8 ad=0.616 pd=3.3 as=0.616 ps=3.3 w=1.08 l=0.18
X158 xaa6.xd.XA7.MN0.D xaa6.xc.XA1.MN0.G xaa6.xd.XA7.MN2.D AVSS sky130_fd_pr__nfet_01v8 ad=0.616 pd=3.3 as=0.616 ps=3.3 w=1.08 l=0.18
R34 m3_13116_63636# AVSS sky130_fd_pr__res_generic_m3 w=0.44 l=0.36
X159 AVDD PWRUP_1V8 xaa6.xc.XA7.MN1.G AVDD sky130_fd_pr__pfet_01v8 ad=0.616 pd=3.3 as=0.616 ps=3.3 w=1.08 l=0.18
R35 m3_4628_82044# xaa1.xa4.M0.D sky130_fd_pr__res_generic_m3 w=0.4 l=0.4
X160 xaa6.xg.XA5.MN0.G xaa6.xg.XA7.MP1.G xaa6.xg.XA4.MN0.D AVSS sky130_fd_pr__nfet_01v8 ad=0.616 pd=3.3 as=0.616 ps=3.3 w=1.08 l=0.18
X161 xaa1.xa1.M2.D IBPSR_1U xaa1.xa1.M1.D AVSS sky130_fd_pr__nfet_01v8 ad=0.378 pd=1.78 as=0.378 ps=1.78 w=1.08 l=0.18
X162 AVSS AVSS AVSS AVSS sky130_fd_pr__nfet_01v8 ad=0 pd=0 as=0.616 ps=3.3 w=1.08 l=0.18
X163 AVSS xaa0.xa3.MN1.G xaa0.xa1.MN0.G AVSS sky130_fd_pr__nfet_01v8 ad=0.616 pd=3.3 as=0.616 ps=3.3 w=1.08 l=0.18
X164 xaa4.xa2_0.M0.G xaa4.xa4_0.M8.D AVDD AVDD sky130_fd_pr__pfet_01v8 ad=0.518 pd=3.12 as=0.518 ps=3.12 w=1.08 l=0.36
X165 xaa6.xf.XA7.MN2.D PWRUP_1V8 AVSS AVSS sky130_fd_pr__nfet_01v8 ad=0.616 pd=3.3 as=0.616 ps=3.3 w=1.08 l=0.18
X166 xaa6.xc.XA5.MN0.G xaa6.xc.XA7.MN1.G xaa6.xc.XA4.MP0.D AVDD sky130_fd_pr__pfet_01v8 ad=0.616 pd=3.3 as=0.616 ps=3.3 w=1.08 l=0.18
R36 m3_4628_85884# xaa1.xa4.M0.D sky130_fd_pr__res_generic_m3 w=0.4 l=0.4
X167 xaa6.xf.XA5.MN0.G xaa6.xf.XA7.MN1.G xaa6.xf.XA3.MN0.D AVSS sky130_fd_pr__nfet_01v8 ad=0.616 pd=3.3 as=0.616 ps=3.3 w=1.08 l=0.18
X168 xaa3.xa1b.MN0.D PWRUP_1V8 AVSS AVSS sky130_fd_pr__nfet_01v8 ad=0.616 pd=3.3 as=0.616 ps=3.3 w=1.08 l=0.18
R37 AVSS m3_37748_74524# sky130_fd_pr__res_generic_m3 w=0.4 l=0.4
X169 xaa6.xg.XA7.MN1.D xaa6.xg.XA7.MP1.G xaa6.xg.XA7.MN0.D AVDD sky130_fd_pr__pfet_01v8 ad=0.616 pd=3.3 as=0.616 ps=3.3 w=1.08 l=0.18
X170 xbb1.xa3.M5.D IBPSR_1U xbb1.xa3.M4.D AVSS sky130_fd_pr__nfet_01v8 ad=0.378 pd=1.78 as=0.378 ps=1.78 w=1.08 l=0.18
X171 xaa4.xa1.M2.D IBPSR_1U xaa4.xa1.M1.D AVSS sky130_fd_pr__nfet_01v8 ad=0.378 pd=1.78 as=0.378 ps=1.78 w=1.08 l=0.18
X172 xaa6.xg.XA7.MN0.D xaa6.xg.XA7.MN0.G AVDD AVDD sky130_fd_pr__pfet_01v8 ad=0.616 pd=3.3 as=0.616 ps=3.3 w=1.08 l=0.18
X173 xaa6.xf.XA4.MN0.D xaa6.xf.XA6.MN0.G AVSS AVSS sky130_fd_pr__nfet_01v8 ad=0.616 pd=3.3 as=0.616 ps=3.3 w=1.08 l=0.18
X174 xaa0.xa5.MP1.D xaa0.xa1.MN0.G AVDD AVDD sky130_fd_pr__pfet_01v8 ad=0.616 pd=3.3 as=0.616 ps=3.3 w=1.08 l=0.18
X175 xaa4.xa2_0.M0.G xaa4.xa4_0.M8.D AVDD AVDD sky130_fd_pr__pfet_01v8 ad=0.518 pd=3.12 as=0.518 ps=3.12 w=1.08 l=0.36
X176 xbb1.xa3.M7.D IBPSR_1U xbb1.xa3.M6.D AVSS sky130_fd_pr__nfet_01v8 ad=0.378 pd=1.78 as=0.378 ps=1.78 w=1.08 l=0.18
X177 xaa0.xa1.MN0.D CK_REF xaa0.xa1.MP1.D AVDD sky130_fd_pr__pfet_01v8 ad=0.616 pd=3.3 as=0.616 ps=3.3 w=1.08 l=0.18
X178 xaa6.xe.XA7.MN1.G xaa6.xe.XA1.MN0.G AVDD AVDD sky130_fd_pr__pfet_01v8 ad=0.616 pd=3.3 as=0.616 ps=3.3 w=1.08 l=0.18
X179 xaa3.xa1c.MN0.D xaa3.xa1b.MN0.D AVDD AVDD sky130_fd_pr__pfet_01v8 ad=0.616 pd=3.3 as=0.616 ps=3.3 w=1.08 l=0.18
X180 xaa4.xa2_0.M0.G xaa5.xb1.MN1.G xaa5.xb1.MN1.D AVDD sky130_fd_pr__pfet_01v8 ad=0.616 pd=3.3 as=0.616 ps=3.3 w=1.08 l=0.18
X181 xaa0.xa1.MN0.G xaa0.xa3.MN1.G xaa0.xa3.MP0.D AVDD sky130_fd_pr__pfet_01v8 ad=0.616 pd=3.3 as=0.616 ps=3.3 w=1.08 l=0.18
R38 AVSS m3_37748_90844# sky130_fd_pr__res_generic_m3 w=0.4 l=0.4
R39 m3_4628_77244# xaa1.xa4.M0.D sky130_fd_pr__res_generic_m3 w=0.4 l=0.4
X182 xaa4.xa4_0.M8.D xaa1.xa3.D xaa4.xa4_0.M7.D AVSS sky130_fd_pr__nfet_01v8 ad=0.616 pd=3.3 as=0.378 ps=1.78 w=1.08 l=0.18
X183 xaa6.xc.XA1.MN0.G xaa6.xd.XA7.MN1.D AVDD AVDD sky130_fd_pr__pfet_01v8 ad=0.616 pd=3.3 as=0.616 ps=3.3 w=1.08 l=0.18
X184 xaa4.xa2_1.M6.D xaa4.xa2_0.M0.G xaa4.xa2_1.M5.D AVSS sky130_fd_pr__nfet_01v8 ad=0.378 pd=1.78 as=0.378 ps=1.78 w=1.08 l=0.18
X185 xaa6.xd.XA6.MN0.G xaa6.xd.XA5.MN0.G AVDD AVDD sky130_fd_pr__pfet_01v8 ad=0.616 pd=3.3 as=0.616 ps=3.3 w=1.08 l=0.18
X186 xaa5.xa3.xb1_0.D xaa5.xa3.xb1_0.G AVSS AVSS sky130_fd_pr__nfet_01v8 ad=0.616 pd=3.3 as=0.616 ps=3.3 w=1.08 l=0.18
R40 AVSS m3_37748_87004# sky130_fd_pr__res_generic_m3 w=0.4 l=0.4
X187 AVDD PWRUP_1V8 xaa6.xd.XA7.MN1.G AVDD sky130_fd_pr__pfet_01v8 ad=0.616 pd=3.3 as=0.616 ps=3.3 w=1.08 l=0.18
R41 AVSS m3_37748_69724# sky130_fd_pr__res_generic_m3 w=0.4 l=0.4
X188 xaa4.xa4_0.M6.D xaa1.xa3.D xaa4.xa4_0.M5.D AVSS sky130_fd_pr__nfet_01v8 ad=0.378 pd=1.78 as=0.378 ps=1.78 w=1.08 l=0.18
X189 CK xaa5.xa3.xb2_0.D AVSS AVSS sky130_fd_pr__nfet_01v8 ad=0.616 pd=3.3 as=0.616 ps=3.3 w=1.08 l=0.18
X190 xaa4.xa2_1.M4.D xaa4.xa2_0.M0.G xaa4.xa2_1.M3.D AVSS sky130_fd_pr__nfet_01v8 ad=0.378 pd=1.78 as=0.378 ps=1.78 w=1.08 l=0.18
X191 xaa4.xa4_0.M8.D xaa4.xa2_0.M8.D AVDD AVDD sky130_fd_pr__pfet_01v8 ad=0.518 pd=3.12 as=0.518 ps=3.12 w=1.08 l=0.36
X192 xaa6.xe.XA7.MN1.D xaa6.xe.XA7.MP1.G xaa6.xe.XA7.MN0.D AVDD sky130_fd_pr__pfet_01v8 ad=0.616 pd=3.3 as=0.616 ps=3.3 w=1.08 l=0.18
X193 xaa6.xd.XA5.MN0.G xaa6.xd.XA7.MN1.G xaa6.xd.XA4.MP0.D AVDD sky130_fd_pr__pfet_01v8 ad=0.616 pd=3.3 as=0.616 ps=3.3 w=1.08 l=0.18
X194 xaa6.xc.XA1.MN0.D xaa6.xc.XA1.MN0.G AVSS AVSS sky130_fd_pr__nfet_01v8 ad=0.616 pd=3.3 as=0.616 ps=3.3 w=1.08 l=0.18
R42 m3_4628_72444# xaa1.xa4.M0.D sky130_fd_pr__res_generic_m3 w=0.4 l=0.4
X195 xaa6.xe.XA7.MN0.D xaa6.xd.XA1.MN0.G AVDD AVDD sky130_fd_pr__pfet_01v8 ad=0.616 pd=3.3 as=0.616 ps=3.3 w=1.08 l=0.18
R43 AVSS m3_37748_82204# sky130_fd_pr__res_generic_m3 w=0.4 l=0.4
X196 AVSS AVSS AVSS AVSS sky130_fd_pr__nfet_01v8 ad=0 pd=0 as=0.616 ps=3.3 w=1.08 l=0.18
R44 AVSS li_6204_57940# sky130_fd_pr__res_generic_l1 w=0.44 l=0.36
X197 xaa1.xa4.M0.G xaa3.xa7.MN0.D xaa3.xa8.MP0.D AVDD sky130_fd_pr__pfet_01v8 ad=0.616 pd=3.3 as=0.616 ps=3.3 w=1.08 l=0.18
X198 a_1220_74698# a_788_76898# AVSS sky130_fd_pr__res_high_po w=0.72 l=8.8
R45 m3_13116_62580# AVSS sky130_fd_pr__res_generic_m3 w=0.44 l=0.36
X199 xaa6.xc.XA7.MN1.D xaa6.xc.XA7.MN1.G xaa6.xc.XA7.MN0.D AVSS sky130_fd_pr__nfet_01v8 ad=0.616 pd=3.3 as=0.616 ps=3.3 w=1.08 l=0.18
X200 xaa6.xf.XA7.MN1.G xaa6.xf.XA1.MN0.G AVDD AVDD sky130_fd_pr__pfet_01v8 ad=0.616 pd=3.3 as=0.616 ps=3.3 w=1.08 l=0.18
X201 xaa3.xa8.MP0.D xaa3.xa1b.MN0.D AVDD AVDD sky130_fd_pr__pfet_01v8 ad=0.616 pd=3.3 as=0.616 ps=3.3 w=1.08 l=0.18
X202 xbb1.xa3.M2.D IBPSR_1U xbb1.xa3.M1.D AVSS sky130_fd_pr__nfet_01v8 ad=0.378 pd=1.78 as=0.378 ps=1.78 w=1.08 l=0.18
X203 xaa1.xb1.M0.D xaa1.xa1.M8.D AVDD AVDD sky130_fd_pr__pfet_01v8 ad=0.378 pd=1.78 as=0.616 ps=3.3 w=1.08 l=0.18
X204 xaa6.xc.XA7.MN0.D xaa0.xa5.MN2.G xaa6.xc.XA7.MN2.D AVSS sky130_fd_pr__nfet_01v8 ad=0.616 pd=3.3 as=0.616 ps=3.3 w=1.08 l=0.18
X205 xaa5.xb1.MN1.D xaa5.xb1.MN1.G xaa5.xb1.MN0.D AVSS sky130_fd_pr__nfet_01v8 ad=0.616 pd=3.3 as=0.616 ps=3.3 w=1.08 l=0.18
X206 AVSS AVSS AVSS AVSS sky130_fd_pr__nfet_01v8 ad=0 pd=0 as=0.616 ps=3.3 w=1.08 l=0.18
X207 xbb1.xa3.M0.D IBPSR_1U AVSS AVSS sky130_fd_pr__nfet_01v8 ad=0.378 pd=1.78 as=0.616 ps=3.3 w=1.08 l=0.18
X208 xaa6.xe.XA7.MN2.D PWRUP_1V8 AVSS AVSS sky130_fd_pr__nfet_01v8 ad=0.616 pd=3.3 as=0.616 ps=3.3 w=1.08 l=0.18
X209 xaa6.xc.XA1.MN0.G xaa6.xd.XA7.MN1.D AVSS AVSS sky130_fd_pr__nfet_01v8 ad=0.616 pd=3.3 as=0.616 ps=3.3 w=1.08 l=0.18
X210 xaa4.xa4_0.M3.D xaa1.xa3.D xaa4.xa4_0.M2.D AVSS sky130_fd_pr__nfet_01v8 ad=0.378 pd=1.78 as=0.378 ps=1.78 w=1.08 l=0.18
X211 xaa3.xa6.MN0.D xaa3.xa5a.MN0.D AVSS AVSS sky130_fd_pr__nfet_01v8 ad=0.616 pd=3.3 as=0.616 ps=3.3 w=1.08 l=0.18
X212 xaa1.xa1.M0.D IBPSR_1U AVSS AVSS sky130_fd_pr__nfet_01v8 ad=0.378 pd=1.78 as=0.616 ps=3.3 w=1.08 l=0.18
X213 xaa6.xe.XA5.MN0.G xaa6.xe.XA7.MN1.G xaa6.xe.XA3.MN0.D AVSS sky130_fd_pr__nfet_01v8 ad=0.616 pd=3.3 as=0.616 ps=3.3 w=1.08 l=0.18
X214 xaa6.xd.XA6.MN0.G xaa6.xd.XA5.MN0.G AVSS AVSS sky130_fd_pr__nfet_01v8 ad=0.616 pd=3.3 as=0.616 ps=3.3 w=1.08 l=0.18
X215 xaa4.xa2_1.M1.D xaa4.xa2_0.M0.G xaa4.xa2_1.M0.D AVSS sky130_fd_pr__nfet_01v8 ad=0.378 pd=1.78 as=0.378 ps=1.78 w=1.08 l=0.18
R46 m3_4628_88764# xaa1.xa4.M0.D sky130_fd_pr__res_generic_m3 w=0.4 l=0.4
X216 xaa6.xf.XA7.MN1.D xaa6.xf.XA7.MP1.G xaa6.xf.XA7.MN0.D AVDD sky130_fd_pr__pfet_01v8 ad=0.616 pd=3.3 as=0.616 ps=3.3 w=1.08 l=0.18
X217 xaa6.xd.XA7.MN1.G PWRUP_1V8 xaa6.xd.XA1.MN0.D AVSS sky130_fd_pr__nfet_01v8 ad=0.616 pd=3.3 as=0.616 ps=3.3 w=1.08 l=0.18
X218 xaa6.xg.XA7.MP1.G xaa6.xg.XA3.MN1.G AVSS AVSS sky130_fd_pr__nfet_01v8 ad=0.616 pd=3.3 as=0.616 ps=3.3 w=1.08 l=0.18
R47 AVSS m3_37748_77404# sky130_fd_pr__res_generic_m3 w=0.4 l=0.4
X219 AVSS xaa0.xa1.MN0.D xaa0.xa1.MN2.D AVSS sky130_fd_pr__nfet_01v8 ad=0.616 pd=3.3 as=0.616 ps=3.3 w=1.08 l=0.18
X220 xaa4.xa4_0.M1.D xaa1.xa3.D xaa4.xa4_0.M0.D AVSS sky130_fd_pr__nfet_01v8 ad=0.378 pd=1.78 as=0.378 ps=1.78 w=1.08 l=0.18
X221 xaa6.xc.XA7.MP1.G xaa6.xc.XA7.MN1.G AVDD AVDD sky130_fd_pr__pfet_01v8 ad=0.616 pd=3.3 as=0.616 ps=3.3 w=1.08 l=0.18
X222 xaa6.xd.XA5.MN0.G xaa6.xd.XA7.MP1.G xaa6.xd.XA4.MN0.D AVSS sky130_fd_pr__nfet_01v8 ad=0.616 pd=3.3 as=0.616 ps=3.3 w=1.08 l=0.18
X223 xaa3.xa7.MN0.D xaa3.xa6.MN0.D AVSS AVSS sky130_fd_pr__nfet_01v8 ad=0.616 pd=3.3 as=0.616 ps=3.3 w=1.08 l=0.18
R48 m3_4628_80124# xaa1.xa4.M0.D sky130_fd_pr__res_generic_m3 w=0.4 l=0.4