* NGSPICE file created from SUN_PLL.ext - technology: sky130B

.subckt CAP_LPF A B VSUBS
R0 A m3_33320_120# sky130_fd_pr__res_generic_m3 w=0.4 l=0.4
R1 m3_280_280# B sky130_fd_pr__res_generic_m3 w=0.4 l=0.4
C0 A B 0.232p
C1 m3_33320_120# B 0.185f
C2 m3_280_280# A 0.111f
C3 B VSUBS 48.1f
C4 A VSUBS 48.1f
.ends

.subckt SUNTR_RES8 N P a_3816_n110# a_360_n110# VSUBS
X0 a_2088_n110# a_1656_2090# VSUBS sky130_fd_pr__res_high_po w=0.72 l=8.8
X1 a_2952_n110# a_2520_2090# VSUBS sky130_fd_pr__res_high_po w=0.72 l=8.8
X2 a_2952_n110# P VSUBS sky130_fd_pr__res_high_po w=0.72 l=8.8
X3 a_360_n110# N VSUBS sky130_fd_pr__res_high_po w=0.72 l=8.8
X4 a_1224_n110# a_792_2090# VSUBS sky130_fd_pr__res_high_po w=0.72 l=8.8
X5 a_2088_n110# a_2520_2090# VSUBS sky130_fd_pr__res_high_po w=0.72 l=8.8
X6 a_360_n110# a_792_2090# VSUBS sky130_fd_pr__res_high_po w=0.72 l=8.8
X7 a_1224_n110# a_1656_2090# VSUBS sky130_fd_pr__res_high_po w=0.72 l=8.8
C0 a_2520_2090# P 0.107f
C1 a_792_2090# N 0.107f
C2 a_1656_2090# a_2520_2090# 0.107f
C3 a_792_2090# a_1656_2090# 0.107f
C4 P VSUBS 0.864f
C5 N VSUBS 0.864f
C6 a_3816_n110# VSUBS 2.55f
C7 a_2952_n110# VSUBS 0.893f
C8 a_2520_2090# VSUBS 1.1f
C9 a_2088_n110# VSUBS 0.807f
C10 a_1656_2090# VSUBS 1.1f
C11 a_1224_n110# VSUBS 0.807f
C12 a_792_2090# VSUBS 1.1f
C13 a_360_n110# VSUBS 0.893f
C14 a_n72_n110# VSUBS 2.55f $ **FLOATING
.ends

.subckt SUNTR_RPPO8 P N B XA1/a_360_n110# XA1/a_3816_n110#
XXA1 N P XA1/a_3816_n110# XA1/a_360_n110# B SUNTR_RES8
C0 P B 0.823f
C1 N B 0.823f
C2 XA1/a_3816_n110# B 2.58f
C3 XA1/a_2952_n110# B 0.936f $ **FLOATING
C4 XA1/a_2520_2090# B 1.13f $ **FLOATING
C5 XA1/a_2088_n110# B 0.838f $ **FLOATING
C6 XA1/a_1656_2090# B 1.13f $ **FLOATING
C7 XA1/a_1224_n110# B 0.838f $ **FLOATING
C8 XA1/a_792_2090# B 1.13f $ **FLOATING
C9 XA1/a_360_n110# B 0.936f
C10 XA1/a_n72_n110# B 2.58f $ **FLOATING
.ends

.subckt SUN_PLL_LPF VLPFZ VLPF AVSS
Xxb1 VLPF AVSS AVSS CAP_LPF
Xxa1 VLPF xa2/N AVSS xa1/XA1/a_360_n110# xa1/XA1/a_3816_n110# SUNTR_RPPO8
Xxa2 VLPFZ xa2/N AVSS xa2/XA1/a_360_n110# xa2/XA1/a_3816_n110# SUNTR_RPPO8
Xxb3_0 VLPFZ AVSS AVSS CAP_LPF
Xxb3_1 VLPFZ AVSS AVSS CAP_LPF
Xxb3_20 VLPFZ AVSS AVSS CAP_LPF
Xxb3_2 VLPFZ AVSS AVSS CAP_LPF
Xxb3_3 VLPFZ AVSS AVSS CAP_LPF
Xxb3_21 VLPFZ AVSS AVSS CAP_LPF
Xxb3_10 VLPFZ AVSS AVSS CAP_LPF
Xxb3_4 VLPFZ AVSS AVSS CAP_LPF
Xxb3_11 VLPFZ AVSS AVSS CAP_LPF
Xxb3_5 VLPFZ AVSS AVSS CAP_LPF
Xxb3_12 VLPFZ AVSS AVSS CAP_LPF
Xxb3_6 VLPFZ AVSS AVSS CAP_LPF
Xxb3_13 VLPFZ AVSS AVSS CAP_LPF
Xxb3_8 VLPFZ AVSS AVSS CAP_LPF
Xxb3_7 VLPFZ AVSS AVSS CAP_LPF
Xxb3_14 VLPFZ AVSS AVSS CAP_LPF
Xxb3_9 VLPFZ AVSS AVSS CAP_LPF
Xxb3_15 VLPFZ AVSS AVSS CAP_LPF
Xxb3_16 VLPFZ AVSS AVSS CAP_LPF
Xxb3_18 VLPFZ AVSS AVSS CAP_LPF
Xxb3_17 VLPFZ AVSS AVSS CAP_LPF
Xxb3_19 VLPFZ AVSS AVSS CAP_LPF
Xxb2_0 VLPF AVSS AVSS CAP_LPF
Xxb2_1 VLPF AVSS AVSS CAP_LPF
C0 xa2/XA1/a_3816_n110# VLPFZ 0.367f
C1 xa2/N xa2/XA1/a_360_n110# 0.207f
C2 VLPF VLPFZ 0.133f
C3 VLPF xa1/XA1/a_3816_n110# 0.187f
C4 xa2/XA1/a_3816_n110# AVSS 2.57f
C5 xa2/XA1/a_2952_n110# AVSS 0.893f $ **FLOATING
C6 xa2/XA1/a_2520_2090# AVSS 1.1f $ **FLOATING
C7 xa2/XA1/a_2088_n110# AVSS 0.807f $ **FLOATING
C8 xa2/XA1/a_1656_2090# AVSS 1.1f $ **FLOATING
C9 xa2/XA1/a_1224_n110# AVSS 0.807f $ **FLOATING
C10 xa2/XA1/a_792_2090# AVSS 1.1f $ **FLOATING
C11 xa2/XA1/a_360_n110# AVSS 0.893f
C12 xa2/XA1/a_n72_n110# AVSS 2.56f $ **FLOATING
C13 VLPFZ AVSS 2.04p
C14 xa2/N AVSS 3.71f
C15 xa1/XA1/a_3816_n110# AVSS 2.57f
C16 xa1/XA1/a_2952_n110# AVSS 0.893f $ **FLOATING
C17 xa1/XA1/a_2520_2090# AVSS 1.1f $ **FLOATING
C18 xa1/XA1/a_2088_n110# AVSS 0.807f $ **FLOATING
C19 xa1/XA1/a_1656_2090# AVSS 1.1f $ **FLOATING
C20 xa1/XA1/a_1224_n110# AVSS 0.807f $ **FLOATING
C21 xa1/XA1/a_792_2090# AVSS 1.1f $ **FLOATING
C22 xa1/XA1/a_360_n110# AVSS 0.893f
C23 xa1/XA1/a_n72_n110# AVSS 2.56f $ **FLOATING
C24 VLPF AVSS 0.284p
.ends

.subckt SUNTR_NCHDL D G S a_324_n18# a_324_334# B
X0 D G S B sky130_fd_pr__nfet_01v8 ad=0.616 pd=3.3 as=0.616 ps=3.3 w=1.08 l=0.18
C0 G B 0.412f
C1 a_324_n18# B 0.422f
C2 a_324_334# B 0.422f
.ends

.subckt SUNTR_NCHDLCM M8/a_324_334# M0/a_324_n18# D G B S
XM0 M1/S G S M0/a_324_n18# G B SUNTR_NCHDL
XM1 M2/S G M1/S G G B SUNTR_NCHDL
XM2 M3/S G M2/S G G B SUNTR_NCHDL
XM4 M5/S G M4/S G G B SUNTR_NCHDL
XM3 M4/S G M3/S G G B SUNTR_NCHDL
XM5 M6/S G M5/S G G B SUNTR_NCHDL
XM6 M7/S G M6/S G G B SUNTR_NCHDL
XM7 M8/S G M7/S G G B SUNTR_NCHDL
XM8 D G M8/S G M8/a_324_334# B SUNTR_NCHDL
C0 M8/a_324_334# B 0.422f
C1 G B 3.41f
C2 M0/a_324_n18# B 0.422f
.ends

.subckt SUN_PLL_BIAS IBPSR_1U PWRUP_1V8_N AVSS
Xxa2 IBPSR_1U PWRUP_1V8_N AVSS xa2/a_324_n18# xa2/a_324_334# AVSS SUNTR_NCHDL
Xxa3 xa3/M8/a_324_334# xa2/a_324_334# IBPSR_1U IBPSR_1U AVSS AVSS SUNTR_NCHDLCM
C0 xa3/M8/a_324_334# AVSS 0.462f
C1 IBPSR_1U AVSS 4.33f
C2 xa2/a_324_334# AVSS 0.361f
C3 PWRUP_1V8_N AVSS 0.884f
C4 xa2/a_324_n18# AVSS 0.468f
.ends

.subckt SUNTR_PCHDL D G S B a_216_n18# a_216_334# VSUBS
X0 D G S B sky130_fd_pr__pfet_01v8 ad=0.616 pd=3.3 as=0.616 ps=3.3 w=1.08 l=0.18
C0 B G 0.339f
C1 a_216_n18# B 0.331f
C2 a_216_334# B 0.331f
C3 B VSUBS 2.81f
.ends

.subckt SUNTR_IVX1_CV AVDD AVSS MP0/B Y MP0/a_216_n18# MP0/a_216_334# A MN0/a_324_n18#
+ VSUBS MN0/a_324_334#
XMP0 Y A AVDD MP0/B MP0/a_216_n18# MP0/a_216_334# VSUBS SUNTR_PCHDL
XMN0 Y A AVSS MN0/a_324_n18# MN0/a_324_334# VSUBS SUNTR_NCHDL
C0 MP0/B A 0.109f
C1 AVDD VSUBS 0.245f
C2 AVSS VSUBS 0.356f
C3 A VSUBS 0.628f
C4 Y VSUBS 0.264f
C5 MN0/a_324_n18# VSUBS 0.422f
C6 MN0/a_324_334# VSUBS 0.422f
C7 MP0/B VSUBS 2.81f
.ends

.subckt SUNTR_TAPCELLB_CV AVDD MN1/a_324_n18# MN1/a_324_334# MP1/a_216_334# MP1/a_216_n18#
+ AVSS
XMP1 AVDD AVDD AVDD AVDD MP1/a_216_n18# MP1/a_216_334# AVSS SUNTR_PCHDL
XMN1 AVSS AVSS AVSS MN1/a_324_n18# MN1/a_324_334# AVSS SUNTR_NCHDL
C0 AVSS AVDD 0.105f
C1 AVSS 0 1.04f
C2 MN1/a_324_n18# 0 0.422f
C3 MN1/a_324_334# 0 0.422f
C4 AVDD 0 3.14f
.ends

.subckt SUNTR_DFTSPCX1_CV CK Q AVDD AVSS MP2/G MP2/B MN1/a_324_334# D MP1/a_216_n18#
+ MN0/a_324_n18# MP2/a_216_334# VSUBS
XMP0 MP2/G CK MP1/D MP2/B MP1/a_216_334# MP2/a_216_n18# VSUBS SUNTR_PCHDL
XMP1 MP1/D D AVDD MP2/B MP1/a_216_n18# MP1/a_216_334# VSUBS SUNTR_PCHDL
XMP2 Q MP2/G AVDD MP2/B MP2/a_216_n18# MP2/a_216_334# VSUBS SUNTR_PCHDL
XMN0 MP2/G D AVSS MN0/a_324_n18# MN2/a_324_n18# VSUBS SUNTR_NCHDL
XMN1 AVSS MP2/G MN2/D MN2/a_324_334# MN1/a_324_334# VSUBS SUNTR_NCHDL
XMN2 MN2/D CK Q MN2/a_324_n18# MN2/a_324_334# VSUBS SUNTR_NCHDL
C0 MP2/G AVDD 0.102f
C1 MP2/B AVDD 0.211f
C2 D MP2/B 0.11f
C3 MP2/G Q 0.241f
C4 MP2/a_216_n18# MP2/B -0.311f
C5 AVSS AVDD 0.132f
C6 CK MP2/G 0.173f
C7 CK MP2/B 0.111f
C8 MP2/B MP1/a_216_334# -0.311f
C9 MP2/B MP2/G 0.211f
C10 AVDD VSUBS 0.343f
C11 AVSS VSUBS 0.602f
C12 Q VSUBS 0.242f
C13 CK VSUBS 0.477f
C14 MN2/a_324_n18# VSUBS 0.35f
C15 MN2/a_324_334# VSUBS 0.35f
C16 MN1/a_324_334# VSUBS 0.422f
C17 D VSUBS 0.551f
C18 MN0/a_324_n18# VSUBS 0.422f
C19 MP2/G VSUBS 1.15f
C20 MP2/B VSUBS 5.96f
.ends

.subckt SUNTR_NRX1_CV B AVDD AVSS MP1/B MN1/a_324_334# A MP0/a_216_n18# Y MP1/a_216_334#
+ MN0/a_324_n18# VSUBS
XMP0 MP1/S A AVDD MP1/B MP0/a_216_n18# MP1/a_216_n18# VSUBS SUNTR_PCHDL
XMP1 Y B MP1/S MP1/B MP1/a_216_n18# MP1/a_216_334# VSUBS SUNTR_PCHDL
XMN0 Y A AVSS MN0/a_324_n18# MN1/a_324_n18# VSUBS SUNTR_NCHDL
XMN1 AVSS B Y MN1/a_324_n18# MN1/a_324_334# VSUBS SUNTR_NCHDL
C0 A MP1/B 0.11f
C1 MP1/B MP1/a_216_n18# -0.311f
C2 MP1/B AVDD 0.136f
C3 Y AVSS 0.122f
C4 B MP1/B 0.11f
C5 AVSS VSUBS 0.54f
C6 Y VSUBS 0.306f
C7 B VSUBS 0.561f
C8 MN1/a_324_n18# VSUBS 0.353f
C9 MN1/a_324_334# VSUBS 0.422f
C10 A VSUBS 0.562f
C11 MN0/a_324_n18# VSUBS 0.422f
C12 AVDD VSUBS 0.269f
C13 MP1/B VSUBS 4.38f
.ends

.subckt SUN_PLL_PFD CP_UP_N CK_REF CP_DOWN CK_FB AVDD xa5/D AVSS
Xxa2a AVDD AVSS AVDD CP_UP_N xa2/MP0/a_216_334# xa3/MP0/a_216_n18# xa2/Y xa2/MN0/a_324_334#
+ AVSS xa3/MN0/a_324_n18# SUNTR_IVX1_CV
Xxa0 AVDD xa0/MN1/a_324_n18# xa1/MN0/a_324_n18# xa1/MP1/a_216_n18# xa0/MP1/a_216_n18#
+ AVSS SUNTR_TAPCELLB_CV
Xxa1 CK_REF xa3/A AVDD AVSS xa1/MP2/G AVDD xa2/MN0/a_324_n18# xa5/D xa1/MP1/a_216_n18#
+ xa1/MN0/a_324_n18# xa2/MP0/a_216_n18# AVSS SUNTR_DFTSPCX1_CV
Xxa2 AVDD AVSS AVDD xa2/Y xa2/MP0/a_216_n18# xa2/MP0/a_216_334# xa3/A xa2/MN0/a_324_n18#
+ AVSS xa2/MN0/a_324_334# SUNTR_IVX1_CV
Xxa3 xa6/A AVDD AVSS AVDD xa5/MN0/a_324_n18# xa3/A xa3/MP0/a_216_n18# xa5/D xa5/MP1/a_216_n18#
+ xa3/MN0/a_324_n18# AVSS SUNTR_NRX1_CV
Xxa5 CK_FB xa6/A AVDD AVSS xa5/MP2/G AVDD xa6/MN0/a_324_n18# xa5/D xa5/MP1/a_216_n18#
+ xa5/MN0/a_324_n18# xa6/MP0/a_216_n18# AVSS SUNTR_DFTSPCX1_CV
Xxa6 AVDD AVSS AVDD CP_DOWN xa6/MP0/a_216_n18# xa6/MP0/a_216_334# xa6/A xa6/MN0/a_324_n18#
+ AVSS xa6/MN0/a_324_334# SUNTR_IVX1_CV
C0 AVDD xa2/MP0/a_216_334# -0.311f
C1 AVDD AVSS 5.16f
C2 xa2/Y AVSS 0.201f
C3 CP_UP_N AVSS 0.451f
C4 AVDD xa6/MP0/a_216_n18# -0.312f
C5 AVDD xa2/MP0/a_216_n18# -0.311f
C6 xa5/MP2/G xa6/A 0.195f
C7 xa6/A AVSS 0.314f
C8 AVDD CP_DOWN 0.539f
C9 AVDD xa5/MP1/a_216_n18# -0.311f
C10 CK_REF AVSS 0.179f
C11 CK_FB AVSS 0.178f
C12 CP_DOWN AVSS 0.482f
C13 xa3/A xa2/Y 0.342f
C14 xa5/D AVDD 0.14f
C15 xa3/MP0/a_216_n18# AVDD -0.313f
C16 xa3/A xa1/MP2/G 0.171f
C17 CP_UP_N AVDD 0.697f
C18 xa5/D xa1/MP2/G 0.179f
C19 xa5/D xa6/A 0.344f
C20 xa3/A AVSS 0.157f
C21 xa1/MP1/a_216_n18# AVDD -0.311f
C22 AVDD xa6/A 0.113f
C23 xa5/D AVSS 0.515f
C24 CP_DOWN 0 0.516f
C25 xa6/MN0/a_324_n18# 0 0.36f
C26 xa6/MN0/a_324_334# 0 0.422f
C27 CK_FB 0 0.773f
C28 xa5/MN2/a_324_n18# 0 0.355f
C29 xa5/MN2/a_324_334# 0 0.355f
C30 xa5/MN0/a_324_n18# 0 0.36f
C31 xa5/MP2/G 0 1.03f
C32 xa6/A 0 1.62f
C33 xa3/MN1/a_324_n18# 0 0.355f
C34 xa3/MN0/a_324_n18# 0 0.36f
C35 xa3/A 0 1.5f
C36 xa2/MN0/a_324_n18# 0 0.36f
C37 xa2/MN0/a_324_334# 0 0.36f
C38 CK_REF 0 0.768f
C39 xa1/MN2/a_324_n18# 0 0.355f
C40 xa1/MN2/a_324_334# 0 0.355f
C41 xa5/D 0 1.97f
C42 xa1/MP2/G 0 1.03f
C43 AVSS 0 1.63f
C44 xa0/MN1/a_324_n18# 0 0.422f
C45 xa1/MN0/a_324_n18# 0 0.36f
C46 AVDD 0 29.2f
C47 xa2/Y 0 0.716f
C48 CP_UP_N 0 0.39f
.ends

.subckt SUNTR_PCHDLCM G M7/a_216_334# D M0/a_216_n18# B VSUBS S
XM0 M7/S G S B M0/a_216_n18# G VSUBS SUNTR_PCHDL
XM7 D G M7/S B G M7/a_216_334# VSUBS SUNTR_PCHDL
C0 B G -0.658f
C1 G VSUBS 0.104f
C2 B VSUBS 3.6f
.ends

.subckt SUNTR_NCHDLA G D M0/a_324_n18# B S
XM0 D G S M0/a_324_n18# G B SUNTR_NCHDL
XM1 S G D G M1/a_324_334# B SUNTR_NCHDL
C0 M1/a_324_334# B 0.422f
C1 S B 0.285f
C2 G B 0.776f
C3 M0/a_324_n18# B 0.422f
.ends

.subckt SUN_PLL_CP AVDD CP_UP_N LPF CP_DOWN VBN LPFZ PWRUP_1V8 KICK AVSS
Xxb1 xb2/G xb2/M0/a_216_n18# xb2/G xb1/M0/a_216_n18# AVDD AVSS AVDD SUNTR_PCHDLCM
Xxb2 xb2/G xb3/a_216_n18# xb3/S xb2/M0/a_216_n18# AVDD AVSS AVDD SUNTR_PCHDLCM
Xxa1 xa2/M0/a_324_n18# xa1/M0/a_324_n18# xb2/G VBN AVSS AVSS SUNTR_NCHDLCM
Xxa2 xa3/a_324_n18# xa2/M0/a_324_n18# xa3/S VBN AVSS AVSS SUNTR_NCHDLCM
Xxb3 LPF CP_UP_N xb3/S AVDD xb3/a_216_n18# xb4/a_216_n18# AVSS SUNTR_PCHDL
Xxa3 LPF CP_DOWN xa3/S xa3/a_324_n18# xa3/a_324_334# AVSS SUNTR_NCHDL
Xxb4 LPF PWRUP_1V8 AVDD AVDD xb4/a_216_n18# xb4/a_216_334# AVSS SUNTR_PCHDL
Xxa4 KICK LPFZ xa3/a_324_334# AVSS AVSS SUNTR_NCHDLA
C0 PWRUP_1V8 AVDD 0.203f
C1 LPF AVDD 0.369f
C2 CP_UP_N PWRUP_1V8 0.479f
C3 xb4/a_216_n18# AVDD -0.302f
C4 KICK CP_DOWN 0.239f
C5 xb3/S AVDD 0.105f
C6 VBN AVDD 0.122f
C7 xb3/a_216_n18# AVDD -0.31f
C8 xb2/G AVDD 0.852f
C9 xb2/M0/a_216_n18# AVDD -0.302f
C10 LPFZ LPF 0.477f
C11 VBN CP_UP_N 0.139f
C12 xb2/G PWRUP_1V8 0.249f
C13 CP_UP_N AVDD 0.247f
C14 CP_UP_N AVSS 0.44f
C15 LPF AVSS 2.37f
C16 xa4/M1/a_324_334# AVSS 0.461f
C17 KICK AVSS 1.15f
C18 LPFZ AVSS 0.793f
C19 xa3/a_324_334# AVSS 0.358f
C20 xa3/S AVSS 0.166f
C21 xa3/a_324_n18# AVSS 0.356f
C22 xa2/M0/a_324_n18# AVSS 0.36f
C23 VBN AVSS 7.29f
C24 xa1/M0/a_324_n18# AVSS 0.494f
C25 xb2/G AVSS 0.736f
C26 AVDD AVSS 18.1f
C27 xb1/M0/a_216_n18# AVSS 0.131f
C28 PWRUP_1V8 AVSS 0.603f
C29 CP_DOWN AVSS 0.735f
.ends

.subckt SUNTR_DCAPX1_CV A B li_2412_n44# li_n108_n44# VSUBS
R0 li_468_484# B sky130_fd_pr__res_generic_l1 w=0.44 l=0.36
R1 A li_1836_1012# sky130_fd_pr__res_generic_l1 w=0.44 l=0.36
C0 A B 1.75f
C1 li_2412_n44# B 0.111f
C2 li_1836_1012# B 0.117f
C3 li_n108_n44# A 0.108f
C4 B VSUBS 1.23f
C5 A VSUBS 1.85f
C6 li_2412_n44# VSUBS 0.968f
C7 li_n108_n44# VSUBS 0.979f
.ends

.subckt SUN_PLL_KICK KICK KICK_N PWRUP_1V8_N AVDD AVSS PWRUP_1V8
Xxa5a AVDD AVSS AVDD xa6/A xa2/MP0/a_216_334# xa5a/MP0/a_216_334# xa2/Y xa2/MN0/a_324_334#
+ AVSS xa5a/MN0/a_324_334# SUNTR_IVX1_CV
Xxa1a AVDD xa1a/MN1/a_324_n18# xa1b/MN0/a_324_n18# xa1b/MP0/a_216_n18# xa1a/MP1/a_216_n18#
+ AVSS SUNTR_TAPCELLB_CV
Xxa1b AVDD AVSS AVDD PWRUP_1V8_N xa1b/MP0/a_216_n18# xa1c/MP0/a_216_n18# PWRUP_1V8
+ xa1b/MN0/a_324_n18# AVSS xa1c/MN0/a_324_n18# SUNTR_IVX1_CV
Xxa1c AVDD AVSS AVDD xa2/A xa1c/MP0/a_216_n18# xa2/MP0/a_216_n18# PWRUP_1V8_N xa1c/MN0/a_324_n18#
+ AVSS xa2/MN0/a_324_n18# SUNTR_IVX1_CV
Xxa2 AVDD AVSS AVDD xa2/Y xa2/MP0/a_216_n18# xa2/MP0/a_216_334# xa2/A xa2/MN0/a_324_n18#
+ AVSS xa2/MN0/a_324_334# SUNTR_IVX1_CV
Xxa6 AVDD AVSS AVDD xa7/A xa6/MP0/a_216_n18# xa7/MP0/a_216_n18# xa6/A xa6/MN0/a_324_n18#
+ AVSS xa7/MN0/a_324_n18# SUNTR_IVX1_CV
Xxa7 AVDD AVSS AVDD xa8/B xa7/MP0/a_216_n18# xa8/MP0/a_216_n18# xa7/A xa7/MN0/a_324_n18#
+ AVSS xa8/MN0/a_324_n18# SUNTR_IVX1_CV
Xxa8 xa8/B AVDD AVSS AVDD xa9/MN0/a_324_n18# PWRUP_1V8_N xa8/MP0/a_216_n18# KICK xa9/MP0/a_216_n18#
+ xa8/MN0/a_324_n18# AVSS SUNTR_NRX1_CV
Xxa9 AVDD AVSS AVDD KICK_N xa9/MP0/a_216_n18# xa9/MP0/a_216_334# KICK xa9/MN0/a_324_n18#
+ AVSS xa9/MN0/a_324_334# SUNTR_IVX1_CV
Xxa5capb AVSS xa6/A AVDD AVSS AVSS SUNTR_DCAPX1_CV
C0 AVDD xa6/A 0.367f
C1 AVDD xa9/MP0/a_216_n18# -0.311f
C2 AVSS KICK_N 0.114f
C3 xa2/A PWRUP_1V8_N 0.215f
C4 PWRUP_1V8_N PWRUP_1V8 0.108f
C5 xa2/A AVSS 0.238f
C6 xa6/A xa2/Y 0.113f
C7 xa7/MP0/a_216_n18# AVDD -0.311f
C8 AVSS PWRUP_1V8_N 0.879f
C9 xa7/A xa6/A 0.124f
C10 KICK xa8/B 0.25f
C11 AVDD PWRUP_1V8_N 0.108f
C12 AVDD AVSS 5.06f
C13 xa2/A xa2/Y 0.182f
C14 AVDD xa2/MP0/a_216_n18# -0.311f
C15 AVDD xa1b/MP0/a_216_n18# -0.311f
C16 AVDD xa1c/MP0/a_216_n18# -0.311f
C17 AVSS xa2/Y 0.253f
C18 PWRUP_1V8_N xa6/A 0.225f
C19 AVDD xa8/MP0/a_216_n18# -0.311f
C20 xa7/A PWRUP_1V8_N 0.137f
C21 AVSS KICK 0.218f
C22 AVSS xa6/A 0.847f
C23 AVSS xa7/A 0.28f
C24 AVDD xa2/MP0/a_216_334# -0.311f
C25 AVSS xa8/B 0.151f
C26 xa9/MN0/a_324_334# 0 0.422f
C27 KICK 0 0.897f
C28 xa8/MN1/a_324_n18# 0 0.355f
C29 xa9/MN0/a_324_n18# 0 0.36f
C30 xa8/MN0/a_324_n18# 0 0.36f
C31 xa8/B 0 0.768f
C32 xa7/MN0/a_324_n18# 0 0.36f
C33 xa7/A 0 0.716f
C34 xa6/MN0/a_324_n18# 0 0.422f
C35 xa2/A 0 0.703f
C36 xa2/Y 0 0.756f
C37 xa2/MN0/a_324_n18# 0 0.36f
C38 xa1c/MN0/a_324_n18# 0 0.36f
C39 PWRUP_1V8 0 0.512f
C40 PWRUP_1V8_N 0 2.14f
C41 xa1b/MN0/a_324_n18# 0 0.36f
C42 AVSS 0 4.7f
C43 xa1a/MN1/a_324_n18# 0 0.422f
C44 AVDD 0 29.1f
C45 xa6/A 0 2.53f
C46 xa2/MN0/a_324_334# 0 0.36f
C47 xa5a/MN0/a_324_334# 0 0.422f
.ends

.subckt SUNSAR_CAP_BSSW_CV A B VSUBS
R0 A m3_9828_132# sky130_fd_pr__res_generic_m3 w=0.44 l=0.36
R1 m3_252_308# B sky130_fd_pr__res_generic_m3 w=0.44 l=0.36
C0 A B 64.5f
C1 m3_9828_132# B 0.17f
C2 m3_252_308# A 0.106f
C3 B VSUBS 15.7f
C4 A VSUBS 15.7f
.ends

.subckt SUNTR_PCHL D G S B a_216_492# a_216_n36# VSUBS
X0 D G S B sky130_fd_pr__pfet_01v8 ad=0.518 pd=3.12 as=0.518 ps=3.12 w=1.08 l=0.36
C0 B G 0.398f
C1 a_216_n36# B 0.426f
C2 a_216_492# B 0.427f
C3 B VSUBS 3.6f
C4 a_216_n36# VSUBS 0.106f
C5 a_216_492# VSUBS 0.106f
.ends

.subckt SUN_PLL_BUF AVDD VFB VI VO VBN AVSS
Xxd3_0 VO AVSS AVSS SUNSAR_CAP_BSSW_CV
Xxd3_1 VO AVSS AVSS SUNSAR_CAP_BSSW_CV
Xxd3_2 VO AVSS AVSS SUNSAR_CAP_BSSW_CV
Xxd3_3 VO AVSS AVSS SUNSAR_CAP_BSSW_CV
Xxc3_11 VO xc3_9/G AVDD AVDD xc3_12/a_216_n36# xc3_11/a_216_n36# AVSS SUNTR_PCHL
Xxd3_5 VO AVSS AVSS SUNSAR_CAP_BSSW_CV
Xxc3_10 VO xc3_9/G AVDD AVDD xc3_11/a_216_n36# xc3_1/a_216_492# AVSS SUNTR_PCHL
Xxd3_4 VO AVSS AVSS SUNSAR_CAP_BSSW_CV
Xxd3_6 VO AVSS AVSS SUNSAR_CAP_BSSW_CV
Xxc3_12 VO xc3_9/G AVDD AVDD xc3_2/a_216_n36# xc3_12/a_216_n36# AVSS SUNTR_PCHL
Xxd3_7 VO AVSS AVSS SUNSAR_CAP_BSSW_CV
Xxd3_8 VO AVSS AVSS SUNSAR_CAP_BSSW_CV
Xxc2_1 xc3_9/G xc2_3/G AVDD AVDD xc2_2/a_216_n36# xc2_1/a_216_n36# AVSS SUNTR_PCHL
Xxc2_0 xc3_9/G xc2_3/G AVDD AVDD xc2_1/a_216_n36# xc2_0/a_216_n36# AVSS SUNTR_PCHL
Xxd3_9 VO AVSS AVSS SUNSAR_CAP_BSSW_CV
Xxc2_2 xc3_9/G xc2_3/G AVDD AVDD xc2_3/a_216_n36# xc2_2/a_216_n36# AVSS SUNTR_PCHL
Xxd2 VO AVSS AVSS SUNSAR_CAP_BSSW_CV
Xxc2_3 xc3_9/G xc2_3/G AVDD AVDD xc3_0/a_216_n36# xc2_3/a_216_n36# AVSS SUNTR_PCHL
Xxa1 xa1/M8/a_324_334# xa1/M0/a_324_n18# xa1/D VBN AVSS AVSS SUNTR_NCHDLCM
Xxa4_0 xa4_1/M0/a_324_n18# xa4_0/M0/a_324_n18# xc3_9/G VI AVSS xa1/D SUNTR_NCHDLCM
Xxa4_1 xa4_1/M8/a_324_334# xa4_1/M0/a_324_n18# xc3_9/G VI AVSS xa1/D SUNTR_NCHDLCM
Xxa2_0 xa2_1/M0/a_324_n18# xa1/M8/a_324_334# xc2_3/G VFB AVSS xa1/D SUNTR_NCHDLCM
Xxa2_1 xa4_0/M0/a_324_n18# xa2_1/M0/a_324_n18# xc2_3/G VFB AVSS xa1/D SUNTR_NCHDLCM
Xxc3_0 VO xc3_9/G AVDD AVDD xc3_1/a_216_n36# xc3_0/a_216_n36# AVSS SUNTR_PCHL
Xxc3_1 VO xc3_9/G AVDD AVDD xc3_1/a_216_492# xc3_1/a_216_n36# AVSS SUNTR_PCHL
Xxc3_2 VO xc3_9/G AVDD AVDD xc3_3/a_216_n36# xc3_2/a_216_n36# AVSS SUNTR_PCHL
Xxc3_3 VO xc3_9/G AVDD AVDD xc3_4/a_216_n36# xc3_3/a_216_n36# AVSS SUNTR_PCHL
Xxc1_0 xc2_3/G xc2_3/G AVDD AVDD xc1_1/a_216_n36# xc1_0/a_216_n36# AVSS SUNTR_PCHL
Xxc3_4 VO xc3_9/G AVDD AVDD xc3_5/a_216_n36# xc3_4/a_216_n36# AVSS SUNTR_PCHL
Xxc1_1 xc2_3/G xc2_3/G AVDD AVDD xc1_2/a_216_n36# xc1_1/a_216_n36# AVSS SUNTR_PCHL
Xxc3_5 VO xc3_9/G AVDD AVDD xc3_6/a_216_n36# xc3_5/a_216_n36# AVSS SUNTR_PCHL
Xxc1_2 xc2_3/G xc2_3/G AVDD AVDD xc1_3/a_216_n36# xc1_2/a_216_n36# AVSS SUNTR_PCHL
Xxc3_7 VO xc3_9/G AVDD AVDD xc3_8/a_216_n36# xc3_7/a_216_n36# AVSS SUNTR_PCHL
Xxc3_6 VO xc3_9/G AVDD AVDD xc3_7/a_216_n36# xc3_6/a_216_n36# AVSS SUNTR_PCHL
Xxc1_3 xc2_3/G xc2_3/G AVDD AVDD xc2_0/a_216_n36# xc1_3/a_216_n36# AVSS SUNTR_PCHL
Xxc3_8 VO xc3_9/G AVDD AVDD xc3_9/a_216_n36# xc3_8/a_216_n36# AVSS SUNTR_PCHL
Xxc3_9 VO xc3_9/G AVDD AVDD xc3_9/a_216_492# xc3_9/a_216_n36# AVSS SUNTR_PCHL
C0 xc3_9/G AVDD 4.1f
C1 xc3_3/a_216_n36# AVDD -0.349f
C2 xa1/D AVDD 0.321f
C3 xc3_11/a_216_n36# AVDD -0.349f
C4 xc3_12/a_216_n36# AVDD -0.349f
C5 xc1_1/a_216_n36# AVDD -0.347f
C6 xc2_3/G AVDD 2.56f
C7 xc1_2/a_216_n36# AVDD -0.349f
C8 xc2_1/a_216_n36# AVDD -0.349f
C9 xc2_2/a_216_n36# AVDD -0.349f
C10 VI VFB 0.212f
C11 xc1_3/a_216_n36# AVDD -0.349f
C12 xc2_0/a_216_n36# AVDD -0.349f
C13 VO xc3_9/G 1.26f
C14 xc3_9/G xa1/D 0.141f
C15 VO xc2_3/G 0.573f
C16 VI AVDD 0.246f
C17 xc3_9/G xc2_3/G 0.709f
C18 xc3_7/a_216_n36# AVDD -0.349f
C19 xc3_8/a_216_n36# AVDD -0.349f
C20 VBN AVDD 0.148f
C21 xc3_1/a_216_492# AVDD -0.349f
C22 xc2_3/G xa1/D 0.238f
C23 xc3_2/a_216_n36# AVDD -0.349f
C24 xc3_4/a_216_n36# AVDD -0.349f
C25 xc3_5/a_216_n36# AVDD -0.349f
C26 xc3_6/a_216_n36# AVDD -0.349f
C27 VFB AVDD 0.411f
C28 VI xa1/D 0.182f
C29 xc2_3/a_216_n36# AVDD -0.349f
C30 xc3_0/a_216_n36# AVDD -0.349f
C31 xa1/D VFB 0.372f
C32 xc3_1/a_216_n36# AVDD -0.349f
C33 xc3_9/a_216_n36# AVDD -0.349f
C34 VO AVDD 5.72f
C35 AVDD AVSS 65.4f
C36 xc3_9/a_216_492# AVSS 0.11f
C37 xc1_0/a_216_n36# AVSS 0.17f
C38 xa2_1/M0/a_324_n18# AVSS 0.353f
C39 VFB AVSS 8.32f
C40 xa1/M8/a_324_334# AVSS 0.354f
C41 xa4_1/M8/a_324_334# AVSS 0.422f
C42 xa4_1/M0/a_324_n18# AVSS 0.353f
C43 VI AVSS 7.32f
C44 xa4_0/M0/a_324_n18# AVSS 0.354f
C45 xc2_3/G AVSS 1.65f
C46 xa1/D AVSS 1.44f
C47 VBN AVSS 3.86f
C48 xa1/M0/a_324_n18# AVSS 0.488f
C49 VO AVSS 0.277p
C50 xc3_9/G AVSS 2.08f
.ends

.subckt SUNTRB_PCHDL D G S B a_216_n18# a_216_334# VSUBS
X0 D G S B sky130_fd_pr__pfet_01v8 ad=0.616 pd=3.3 as=0.616 ps=3.3 w=1.08 l=0.18
C0 B G 0.339f
C1 a_216_n18# B 0.331f
C2 a_216_334# B 0.331f
C3 B VSUBS 2.81f
.ends

.subckt SUNTRB_NCHDL D G S a_324_n18# a_324_334# B
X0 D G S B sky130_fd_pr__nfet_01v8 ad=0.616 pd=3.3 as=0.616 ps=3.3 w=1.08 l=0.18
C0 G B 0.412f
C1 a_324_n18# B 0.422f
C2 a_324_334# B 0.422f
.ends

.subckt SUNTRB_IVX1_CV BULKP AVDD AVSS A Y MP0/a_216_n18# MP0/a_216_334# MN0/a_324_n18#
+ VSUBS MN0/a_324_334#
XMP0 Y A AVDD BULKP MP0/a_216_n18# MP0/a_216_334# VSUBS SUNTRB_PCHDL
XMN0 Y A AVSS MN0/a_324_n18# MN0/a_324_334# VSUBS SUNTRB_NCHDL
C0 BULKP A 0.109f
C1 AVSS VSUBS 0.356f
C2 Y VSUBS 0.264f
C3 MN0/a_324_n18# VSUBS 0.422f
C4 MN0/a_324_334# VSUBS 0.422f
C5 AVDD VSUBS 0.245f
C6 A VSUBS 0.628f
C7 BULKP VSUBS 2.81f
.ends

.subckt SUNTRB_NDX1_CV B Y AVDD AVSS MN1/a_324_334# A BULKP MP1/a_216_334# VSUBS
XMP0 Y A AVDD BULKP MP0/a_216_n18# MP1/a_216_n18# VSUBS SUNTRB_PCHDL
XMP1 AVDD B Y BULKP MP1/a_216_n18# MP1/a_216_334# VSUBS SUNTRB_PCHDL
XMN0 MN1/S A AVSS MN0/a_324_n18# MN1/a_324_n18# VSUBS SUNTRB_NCHDL
XMN1 Y B MN1/S MN1/a_324_n18# MN1/a_324_334# VSUBS SUNTRB_NCHDL
C0 BULKP AVDD 0.175f
C1 BULKP Y 0.115f
C2 BULKP B 0.11f
C3 A BULKP 0.11f
C4 MP1/a_216_n18# BULKP -0.311f
C5 AVSS VSUBS 0.411f
C6 MN1/a_324_334# VSUBS 0.422f
C7 AVDD VSUBS 0.345f
C8 MN0/a_324_n18# VSUBS 0.422f
C9 MN1/a_324_n18# VSUBS 0.352f
C10 Y VSUBS 0.299f
C11 B VSUBS 0.561f
C12 BULKP VSUBS 4.38f
C13 A VSUBS 0.562f
.ends

.subckt SUNTRB_TAPCELLBAVSS_CV MN1/a_324_n18# MP1/B MP1/a_216_n18# AVSS
XMP1 MP1/S MP1/S MP1/S MP1/B MP1/a_216_n18# MP1/a_216_334# AVSS SUNTRB_PCHDL
XMN1 AVSS AVSS AVSS MN1/a_324_n18# MN1/a_324_334# AVSS SUNTRB_NCHDL
C0 AVSS 0 1.07f
C1 MN1/a_324_n18# 0 0.422f
C2 MN1/a_324_334# 0 0.422f
C3 MP1/S 0 0.177f
C4 MP1/B 0 2.81f
.ends

.subckt SUN_PLL_LSCORE A AVDD AVSS xb2_1/a_324_334# xc2b/a_216_334# YN xc2b/B AN Y
+ VSUBS
Xxc2a xc2b/S Y AVDD xc2b/B xc2a/a_216_n18# xc2b/a_216_n18# VSUBS SUNTR_PCHDL
Xxc2b YN Y xc2b/S xc2b/B xc2b/a_216_n18# xc2b/a_216_334# VSUBS SUNTR_PCHDL
Xxc1a xc1b/S YN AVDD xc2b/B xc1a/a_216_n18# xc1b/a_216_n18# VSUBS SUNTR_PCHDL
Xxc1b Y YN xc1b/S xc2b/B xc1b/a_216_n18# xc2a/a_216_n18# VSUBS SUNTR_PCHDL
Xxb1_0 Y AN AVSS xb1_0/a_324_n18# xb1_1/a_324_n18# VSUBS SUNTR_NCHDL
Xxb1_1 Y AN AVSS xb1_1/a_324_n18# xb2_0/a_324_n18# VSUBS SUNTR_NCHDL
Xxb2_0 YN A AVSS xb2_0/a_324_n18# xb2_1/a_324_n18# VSUBS SUNTR_NCHDL
Xxb2_1 YN A AVSS xb2_1/a_324_n18# xb2_1/a_324_334# VSUBS SUNTR_NCHDL
C0 Y YN 0.347f
C1 xc2b/B AVDD 0.222f
C2 xc2b/B YN 0.414f
C3 xc2b/B Y 0.334f
C4 xc1b/a_216_n18# xc2b/B -0.311f
C5 xc2a/a_216_n18# xc2b/B -0.311f
C6 xc2b/a_216_n18# xc2b/B -0.311f
C7 AVDD AVSS 0.185f
C8 YN AVSS 0.161f
C9 Y AVSS 0.224f
C10 Y AVDD 0.253f
C11 xb2_1/a_324_334# VSUBS 0.422f
C12 A VSUBS 0.874f
C13 xb2_0/a_324_n18# VSUBS 0.353f
C14 xb2_1/a_324_n18# VSUBS 0.352f
C15 AN VSUBS 0.874f
C16 xb1_0/a_324_n18# VSUBS 0.422f
C17 xb1_1/a_324_n18# VSUBS 0.352f
C18 AVSS VSUBS 0.742f
C19 AVDD VSUBS 0.362f
C20 YN VSUBS 0.421f
C21 Y VSUBS 0.435f
C22 xc2b/B VSUBS 7.54f
.ends

.subckt SUN_PLL_ROSC AVDD CK VDD_ROSC PWRUP_1V8 AVSS
Xxb2_3 AVDD VDD_ROSC AVSS xb2_3/A xb2_4/A xb2_3/MP0/a_216_n18# xb2_4/MP0/a_216_n18#
+ xb2_3/MN0/a_324_n18# AVSS xb2_4/MN0/a_324_n18# SUNTRB_IVX1_CV
Xxb2_2 AVDD VDD_ROSC AVSS xb2_2/A xb2_3/A xb2_2/MP0/a_216_n18# xb2_3/MP0/a_216_n18#
+ xb2_2/MN0/a_324_n18# AVSS xb2_3/MN0/a_324_n18# SUNTRB_IVX1_CV
Xxb2_4 AVDD VDD_ROSC AVSS xb2_4/A xb2_5/A xb2_4/MP0/a_216_n18# xb2_5/MP0/a_216_n18#
+ xb2_4/MN0/a_324_n18# AVSS xb2_5/MN0/a_324_n18# SUNTRB_IVX1_CV
Xxb2_5 AVDD VDD_ROSC AVSS xb2_5/A xa3/A xb2_5/MP0/a_216_n18# xb2_6/MP0/a_216_n18#
+ xb2_5/MN0/a_324_n18# AVSS xb2_6/MN0/a_324_n18# SUNTRB_IVX1_CV
Xxb2_6 AVDD VDD_ROSC AVSS xa3/A xa3/AN xb2_6/MP0/a_216_n18# xb2_7/MP0/a_216_n18# xb2_6/MN0/a_324_n18#
+ AVSS xb2_7/MN0/a_324_n18# SUNTRB_IVX1_CV
Xxb2_7 AVDD VDD_ROSC AVSS xa3/AN xb1/B xb2_7/MP0/a_216_n18# xb3/MP1/a_216_n18# xb2_7/MN0/a_324_n18#
+ AVSS xb3/MN1/a_324_n18# SUNTRB_IVX1_CV
Xxb1 xb1/B xb1/Y VDD_ROSC AVSS xb1/MN1/a_324_334# PWRUP_1V8 AVDD xb1/MP1/a_216_334#
+ AVSS SUNTRB_NDX1_CV
Xxb3 xb3/MN1/a_324_n18# AVDD xb3/MP1/a_216_n18# AVSS SUNTRB_TAPCELLBAVSS_CV
Xxa3 xa3/A AVDD AVSS xa4/MN0/a_324_n18# xa4/MP0/a_216_n18# xa5/A AVDD xa3/AN xa4/A
+ AVSS SUN_PLL_LSCORE
Xxa4 AVDD AVSS AVDD xa4/Y xa4/MP0/a_216_n18# xa5/MP0/a_216_n18# xa4/A xa4/MN0/a_324_n18#
+ AVSS xa5/MN0/a_324_n18# SUNTR_IVX1_CV
Xxa5 AVDD AVSS AVDD CK xa5/MP0/a_216_n18# xa6/MP1/a_216_n18# xa5/A xa5/MN0/a_324_n18#
+ AVSS xa6/MN1/a_324_n18# SUNTR_IVX1_CV
Xxa6 AVDD xa6/MN1/a_324_n18# xa6/MN1/a_324_334# xa6/MP1/a_216_334# xa6/MP1/a_216_n18#
+ AVSS SUNTR_TAPCELLB_CV
Xxb2_0 AVDD VDD_ROSC AVSS xb1/Y xb2_1/A xb1/MP1/a_216_334# xb2_1/MP0/a_216_n18# xb1/MN1/a_324_334#
+ AVSS xb2_1/MN0/a_324_n18# SUNTRB_IVX1_CV
Xxb2_1 AVDD VDD_ROSC AVSS xb2_1/A xb2_2/A xb2_1/MP0/a_216_n18# xb2_2/MP0/a_216_n18#
+ xb2_1/MN0/a_324_n18# AVSS xb2_2/MN0/a_324_n18# SUNTRB_IVX1_CV
C0 xb2_5/A xa3/A 0.165f
C1 VDD_ROSC xa3/A 0.305f
C2 xa4/A xa5/A 0.241f
C3 xb2_7/MP0/a_216_n18# AVDD -0.311f
C4 xb2_4/A xb2_5/A 0.134f
C5 xa4/MP0/a_216_n18# AVDD -0.311f
C6 xb2_6/MP0/a_216_n18# AVDD -0.311f
C7 VDD_ROSC xa3/AN 0.302f
C8 xa3/AN xa3/A 0.957f
C9 VDD_ROSC AVDD 0.154f
C10 AVDD xa3/A 0.406f
C11 xb2_5/MP0/a_216_n18# AVDD -0.31f
C12 xb1/B xa3/AN 0.131f
C13 xb3/MP1/a_216_n18# AVDD -0.311f
C14 xb2_3/A xb2_4/A 0.134f
C15 xb1/B xb1/Y 0.112f
C16 AVDD CK 0.436f
C17 xb2_4/MP0/a_216_n18# AVDD -0.31f
C18 AVDD xa3/AN 0.283f
C19 xb1/MP1/a_216_334# AVDD -0.31f
C20 AVDD xb2_1/MP0/a_216_n18# -0.31f
C21 PWRUP_1V8 AVDD 0.302f
C22 xb2_3/A xb2_2/A 0.134f
C23 xa4/A xa3/A 0.288f
C24 xb2_3/MP0/a_216_n18# AVDD -0.31f
C25 xb2_2/MP0/a_216_n18# AVDD -0.31f
C26 xa4/A xa3/AN 0.121f
C27 xa5/MP0/a_216_n18# AVDD -0.311f
C28 xa6/MP1/a_216_n18# AVDD -0.311f
C29 xb2_2/A xb2_1/A 0.134f
C30 xa5/A AVDD 0.115f
C31 xb2_1/A xb1/Y 0.121f
C32 xa4/A AVDD 0.103f
C33 xb2_1/MN0/a_324_n18# AVSS 0.352f
C34 xb2_1/A AVSS 0.786f
C35 xb1/Y AVSS 0.92f
C36 xa6/MN1/a_324_334# AVSS 0.422f
C37 AVDD AVSS 36.8f
C38 CK AVSS 1.57f
C39 xa5/MN0/a_324_n18# AVSS 0.356f
C40 xa6/MN1/a_324_n18# AVSS 0.354f
C41 xa4/Y AVSS 0.319f
C42 xa4/MN0/a_324_n18# AVSS 0.352f
C43 xa3/A AVSS 3.01f
C44 xa3/xb2_0/a_324_n18# AVSS 0.355f
C45 xa3/xb2_1/a_324_n18# AVSS 0.355f
C46 xa3/AN AVSS 2.99f
C47 xa3/xb1_0/a_324_n18# AVSS 0.467f
C48 xa3/xb1_1/a_324_n18# AVSS 0.352f
C49 xa5/A AVSS 1.15f
C50 xa4/A AVSS 1.57f
C51 xa3/xc1a/a_216_n18# AVSS 0.13f
C52 xb3/MN1/a_324_n18# AVSS 0.354f
C53 xb3/MN1/a_324_334# AVSS 0.461f
C54 xb3/MP1/S AVSS 0.233f
C55 xb3/MP1/a_216_334# AVSS 0.129f
C56 xb1/MN1/a_324_334# AVSS 0.353f
C57 VDD_ROSC AVSS 0.785f
C58 xb1/MN0/a_324_n18# AVSS 0.469f
C59 xb1/MN1/a_324_n18# AVSS 0.358f
C60 xb1/B AVSS 2.5f
C61 PWRUP_1V8 AVSS 1.23f
C62 xb1/MP0/a_216_n18# AVSS 0.131f
C63 xb2_6/MN0/a_324_n18# AVSS 0.349f
C64 xb2_7/MN0/a_324_n18# AVSS 0.349f
C65 xb2_5/MN0/a_324_n18# AVSS 0.352f
C66 xb2_5/A AVSS 0.782f
C67 xb2_4/MN0/a_324_n18# AVSS 0.352f
C68 xb2_4/A AVSS 0.782f
C69 xb2_2/MN0/a_324_n18# AVSS 0.352f
C70 xb2_2/A AVSS 0.782f
C71 xb2_3/MN0/a_324_n18# AVSS 0.352f
C72 xb2_3/A AVSS 0.782f
.ends

.subckt SUNTR_NDX1_CV B Y AVDD AVSS MN1/a_324_334# A MP1/B MP0/a_216_n18# MP1/a_216_334#
+ MN0/a_324_n18# VSUBS
XMP0 Y A AVDD MP1/B MP0/a_216_n18# MP1/a_216_n18# VSUBS SUNTR_PCHDL
XMP1 AVDD B Y MP1/B MP1/a_216_n18# MP1/a_216_334# VSUBS SUNTR_PCHDL
XMN0 MN1/S A AVSS MN0/a_324_n18# MN1/a_324_n18# VSUBS SUNTR_NCHDL
XMN1 Y B MN1/S MN1/a_324_n18# MN1/a_324_334# VSUBS SUNTR_NCHDL
C0 MP1/B AVDD 0.175f
C1 MP1/B B 0.11f
C2 MP1/B Y 0.115f
C3 MP1/B A 0.11f
C4 MP1/a_216_n18# MP1/B -0.311f
C5 AVDD VSUBS 0.345f
C6 AVSS VSUBS 0.411f
C7 B VSUBS 0.561f
C8 Y VSUBS 0.299f
C9 MN1/a_324_n18# VSUBS 0.352f
C10 MN1/a_324_334# VSUBS 0.422f
C11 A VSUBS 0.562f
C12 MN0/a_324_n18# VSUBS 0.422f
C13 MP1/B VSUBS 4.38f
.ends

.subckt SUNTR_IVTRIX1_CV CN AVDD AVSS MN1/a_324_334# C Y MP1/B MP0/a_216_n18# MP1/a_216_334#
+ A MN0/a_324_n18# VSUBS
XMP0 MP1/S A AVDD MP1/B MP0/a_216_n18# MP1/a_216_n18# VSUBS SUNTR_PCHDL
XMP1 Y CN MP1/S MP1/B MP1/a_216_n18# MP1/a_216_334# VSUBS SUNTR_PCHDL
XMN0 MN1/S A AVSS MN0/a_324_n18# MN1/a_324_n18# VSUBS SUNTR_NCHDL
XMN1 Y C MN1/S MN1/a_324_n18# MN1/a_324_334# VSUBS SUNTR_NCHDL
C0 MP1/B AVDD 0.137f
C1 MP1/B A 0.116f
C2 MP1/a_216_n18# MP1/B -0.311f
C3 AVDD VSUBS 0.272f
C4 AVSS VSUBS 0.415f
C5 A VSUBS 0.579f
C6 C VSUBS 0.384f
C7 Y VSUBS 0.255f
C8 MN1/a_324_n18# VSUBS 0.352f
C9 MN1/a_324_334# VSUBS 0.422f
C10 MN0/a_324_n18# VSUBS 0.422f
C11 MP1/B VSUBS 4.38f
.ends

.subckt SUNTR_NDTRIX1_CV C CN Y AVDD AVSS MN1/a_324_334# MN2/a_324_n18# MP2/B RN MP2/S
+ MP1/a_216_334# A MP2/a_216_n18# VSUBS
XMP0 MP2/S A AVDD MP2/B MP2/a_216_334# MP1/a_216_n18# VSUBS SUNTR_PCHDL
XMP1 Y CN MP2/S MP2/B MP1/a_216_n18# MP1/a_216_334# VSUBS SUNTR_PCHDL
XMP2 AVDD RN MP2/S MP2/B MP2/a_216_n18# MP2/a_216_334# VSUBS SUNTR_PCHDL
XMN0 MP2/S A MN2/D MN2/a_324_334# MN1/a_324_n18# VSUBS SUNTR_NCHDL
XMN1 Y C MP2/S MN1/a_324_n18# MN1/a_324_334# VSUBS SUNTR_NCHDL
XMN2 MN2/D RN AVSS MN2/a_324_n18# MN2/a_324_334# VSUBS SUNTR_NCHDL
C0 MP2/B RN 0.109f
C1 MP2/B MP2/S 0.188f
C2 MP2/B MP2/a_216_334# -0.311f
C3 AVSS AVDD 0.12f
C4 MP1/a_216_n18# MP2/B -0.311f
C5 MP2/S AVDD 0.161f
C6 MP2/B AVDD 0.18f
C7 MP2/B A 0.116f
C8 AVDD VSUBS 0.301f
C9 A VSUBS 0.512f
C10 AVSS VSUBS 0.484f
C11 RN VSUBS 0.562f
C12 MN2/a_324_n18# VSUBS 0.422f
C13 MN2/a_324_334# VSUBS 0.352f
C14 C VSUBS 0.384f
C15 Y VSUBS 0.216f
C16 MN1/a_324_n18# VSUBS 0.352f
C17 MN1/a_324_334# VSUBS 0.422f
C18 MP2/S VSUBS 0.252f
C19 MP2/B VSUBS 5.96f
.ends

.subckt SUNTR_DFRNQNX1_CV RN Q D QN XA5/A XA7/C XA6/A CK AVDD AVSS
XXA0 AVDD XA0/MN1/a_324_n18# XA1/MN0/a_324_n18# XA1/MP0/a_216_n18# XA0/MP1/a_216_n18#
+ AVSS SUNTR_TAPCELLB_CV
XXA1 RN XA7/C AVDD AVSS XA2/MN0/a_324_n18# CK AVDD XA1/MP0/a_216_n18# XA2/MP0/a_216_n18#
+ XA1/MN0/a_324_n18# AVSS SUNTR_NDX1_CV
XXA2 AVDD AVSS AVDD XA6/C XA2/MP0/a_216_n18# XA3/MP0/a_216_n18# XA7/C XA2/MN0/a_324_n18#
+ AVSS XA3/MN0/a_324_n18# SUNTR_IVX1_CV
XXA3 XA6/C AVDD AVSS XA4/MN0/a_324_n18# XA7/C XA5/A AVDD XA3/MP0/a_216_n18# XA4/MP0/a_216_n18#
+ D XA3/MN0/a_324_n18# AVSS SUNTR_IVTRIX1_CV
XXA5 AVDD AVSS AVDD XA6/A XA5/MP0/a_216_n18# XA6/MP0/a_216_n18# XA5/A XA5/MN0/a_324_n18#
+ AVSS XA6/MN0/a_324_n18# SUNTR_IVX1_CV
XXA4 XA7/C AVDD AVSS XA5/MN0/a_324_n18# XA6/C XA5/A AVDD XA4/MP0/a_216_n18# XA5/MP0/a_216_n18#
+ XA6/A XA4/MN0/a_324_n18# AVSS SUNTR_IVTRIX1_CV
XXA6 XA7/C AVDD AVSS XA7/MN2/a_324_n18# XA6/C QN AVDD XA6/MP0/a_216_n18# XA7/MP2/a_216_n18#
+ XA6/A XA6/MN0/a_324_n18# AVSS SUNTR_IVTRIX1_CV
XXA7 XA7/C XA6/C QN AVDD AVSS XA8/MN0/a_324_n18# XA7/MN2/a_324_n18# AVDD RN XA7/MP2/S
+ XA8/MP0/a_216_n18# Q XA7/MP2/a_216_n18# AVSS SUNTR_NDTRIX1_CV
XXA8 AVDD AVSS AVDD Q XA8/MP0/a_216_n18# XA8/MP0/a_216_334# QN XA8/MN0/a_324_n18#