* NGSPICE file created from SUN_PLL.ext - technology: sky130B

* Replacing the lpe port list (../tech/scripts/fixlpe)
.subckt SUN_PLL AVDD AVSS PWRUP_1V8 CK_REF CK IBPSR_1U
*.subckt SUN_PLL CK IBPSR_1U PWRUP_1V8 CK_REF AVSS AVDD
X0 xaa6.xe.CK xaa6.xf.D AVSS AVSS sky130_fd_pr__nfet_01v8 ad=0.6156 pd=3.3 as=0.6156 ps=3.3 w=1.08 l=0.18
X1 xaa1.xa2.D IBPSR_1U xaa1.xa2.M7.D AVSS sky130_fd_pr__nfet_01v8 ad=0.6156 pd=3.3 as=0.378 ps=1.78 w=1.08 l=0.18
X2 xaa4.xa1.M6.D IBPSR_1U xaa4.xa1.M5.D AVSS sky130_fd_pr__nfet_01v8 ad=0.378 pd=1.78 as=0.378 ps=1.78 w=1.08 l=0.18
X3 xaa6.xf.XA4.A xaa6.xf.XA3.Y AVSS AVSS sky130_fd_pr__nfet_01v8 ad=0.6156 pd=3.3 as=0.6156 ps=3.3 w=1.08 l=0.18
X4 xaa3.xa5a.Y xaa3.xa2.Y AVSS AVSS sky130_fd_pr__nfet_01v8 ad=0.6156 pd=3.3 as=0.6156 ps=3.3 w=1.08 l=0.18
X5 AVDD AVDD AVDD AVDD sky130_fd_pr__pfet_01v8 ad=0.6156 pd=3.3 as=65.6748 ps=359.22 w=1.08 l=0.18
X6 xaa6.xf.XA7.C PWRUP_1V8 xaa6.xf.XA1.MN0.D AVSS sky130_fd_pr__nfet_01v8 ad=0.6156 pd=3.3 as=0.6156 ps=3.3 w=1.08 l=0.18
X7 xaa0.xa3.MP0.D xaa0.xa1.Q AVDD AVDD sky130_fd_pr__pfet_01v8 ad=0.6156 pd=3.3 as=0.6156 ps=3.3 w=1.08 l=0.18
X8 xaa4.xa4_0.M2.D VLPF xaa4.xa4_0.M1.D AVSS sky130_fd_pr__nfet_01v8 ad=0.378 pd=1.78 as=0.378 ps=1.78 w=1.08 l=0.18
R0 AVSS m3_37748_71644# sky130_fd_pr__res_generic_m3 w=0.4 l=0.4
X9 AVDD PWRUP_1V8 xaa6.xd.XA7.MN0.D AVDD sky130_fd_pr__pfet_01v8 ad=0.6156 pd=3.3 as=0.6156 ps=3.3 w=1.08 l=0.18
R1 m3_13116_54132# AVSS sky130_fd_pr__res_generic_m3 w=0.44 l=0.36
R2 m3_13116_57300# AVSS sky130_fd_pr__res_generic_m3 w=0.44 l=0.36
X10 xaa6.xe.XA7.CN xaa6.xe.XA7.C AVDD AVDD sky130_fd_pr__pfet_01v8 ad=0.6156 pd=3.3 as=0.6156 ps=3.3 w=1.08 l=0.18
X11 xaa4.xa2_1.M0.D VDD_ROSC xaa4.xa1.D AVSS sky130_fd_pr__nfet_01v8 ad=0.378 pd=1.78 as=0.6156 ps=3.3 w=1.08 l=0.18
X12 xaa3.xa2.Y xaa3.xa1c.Y AVSS AVSS sky130_fd_pr__nfet_01v8 ad=0.6156 pd=3.3 as=0.6156 ps=3.3 w=1.08 l=0.18
R3 m3_4628_87804# VLPZ sky130_fd_pr__res_generic_m3 w=0.4 l=0.4
X13 xaa6.xd.XA3.Y xaa6.xd.XA7.CN xaa6.xd.XA3.MP0.D AVDD sky130_fd_pr__pfet_01v8 ad=0.6156 pd=3.3 as=0.6156 ps=3.3 w=1.08 l=0.18
X14 xaa6.xf.XA3.Y xaa6.xf.XA7.CN xaa6.xf.XA4.MN0.D AVSS sky130_fd_pr__nfet_01v8 ad=0.6156 pd=3.3 as=0.6156 ps=3.3 w=1.08 l=0.18
X15 xaa5.xb2_1.Y xaa5.xb2_1.A VDD_ROSC AVDD sky130_fd_pr__pfet_01v8 ad=0.6156 pd=3.3 as=0.6156 ps=3.3 w=1.08 l=0.18
X16 xaa4.xa1.D IBPSR_1U xaa4.xa1.M7.D AVSS sky130_fd_pr__nfet_01v8 ad=0.6156 pd=3.3 as=0.378 ps=1.78 w=1.08 l=0.18
R4 AVSS m3_37748_92764# sky130_fd_pr__res_generic_m3 w=0.4 l=0.4
R5 m3_4628_79164# VLPZ sky130_fd_pr__res_generic_m3 w=0.4 l=0.4
X17 xaa4.xc1_0.G VDD_ROSC xaa4.xa2_0.M7.D AVSS sky130_fd_pr__nfet_01v8 ad=0.6156 pd=3.3 as=0.378 ps=1.78 w=1.08 l=0.18
X18 xaa6.xe.D xaa6.xe.XA7.C xaa6.xe.XA6.MP0.D AVDD sky130_fd_pr__pfet_01v8 ad=0.6156 pd=3.3 as=0.6156 ps=3.3 w=1.08 l=0.18
X19 xaa5.xb3.MP1.G xaa5.xb3.MP1.G xaa5.xb3.MP1.G AVDD sky130_fd_pr__pfet_01v8 ad=0.6156 pd=3.3 as=1.2312 ps=6.6 w=1.08 l=0.18
X20 xaa6.xe.XA3.MP0.D xaa6.xe.D AVDD AVDD sky130_fd_pr__pfet_01v8 ad=0.6156 pd=3.3 as=0.6156 ps=3.3 w=1.08 l=0.18
R6 VDD_ROSC m3_22692_57124# sky130_fd_pr__res_generic_m3 w=0.44 l=0.36
X21 xaa6.xd.XA4.MP0.D xaa6.xd.XA4.A AVDD AVDD sky130_fd_pr__pfet_01v8 ad=0.6156 pd=3.3 as=0.6156 ps=3.3 w=1.08 l=0.18
X22 xaa5.xb2_3.A xaa5.xb2_1.Y VDD_ROSC AVDD sky130_fd_pr__pfet_01v8 ad=0.6156 pd=3.3 as=0.6156 ps=3.3 w=1.08 l=0.18
X23 xaa6.xe.XA6.MP0.D xaa6.xe.XA4.A AVDD AVDD sky130_fd_pr__pfet_01v8 ad=0.6156 pd=3.3 as=0.6156 ps=3.3 w=1.08 l=0.18
X24 xaa5.xb1.B xaa5.xa3.AN VDD_ROSC AVDD sky130_fd_pr__pfet_01v8 ad=0.6156 pd=3.3 as=0.6156 ps=3.3 w=1.08 l=0.18
X25 xaa6.xc.XA7.CN xaa6.xc.XA7.C AVSS AVSS sky130_fd_pr__nfet_01v8 ad=0.6156 pd=3.3 as=0.6156 ps=3.3 w=1.08 l=0.18
X26 xaa1.xa2.M7.D IBPSR_1U xaa1.xa2.M6.D AVSS sky130_fd_pr__nfet_01v8 ad=0.378 pd=1.78 as=0.378 ps=1.78 w=1.08 l=0.18
R7 m3_4628_74364# VLPZ sky130_fd_pr__res_generic_m3 w=0.4 l=0.4
X27 xaa1.xb2.M0.D xaa1.xa1.D AVDD AVDD sky130_fd_pr__pfet_01v8 ad=0.378 pd=1.78 as=0.6156 ps=3.3 w=1.08 l=0.18
X28 xaa1.xa1.M5.D IBPSR_1U xaa1.xa1.M4.D AVSS sky130_fd_pr__nfet_01v8 ad=0.378 pd=1.78 as=0.378 ps=1.78 w=1.08 l=0.18
X29 VLPF a_2084_70022# AVSS sky130_fd_pr__res_high_po w=0.72 l=8.96
X30 xaa4.xc2_0.D VLPF xaa4.xa4_1.M7.D AVSS sky130_fd_pr__nfet_01v8 ad=0.6156 pd=3.3 as=0.378 ps=1.78 w=1.08 l=0.18
X31 xaa6.xc.D xaa6.xc.XA7.CN xaa6.xc.XA6.MN0.D AVSS sky130_fd_pr__nfet_01v8 ad=0.6156 pd=3.3 as=0.6156 ps=3.3 w=1.08 l=0.18
X32 xaa1.xa2.M5.D IBPSR_1U xaa1.xa2.M4.D AVSS sky130_fd_pr__nfet_01v8 ad=0.378 pd=1.78 as=0.378 ps=1.78 w=1.08 l=0.18
R8 AVSS m3_37748_84124# sky130_fd_pr__res_generic_m3 w=0.4 l=0.4
X33 xaa6.xc.XA3.MN0.D xaa6.xc.D AVSS AVSS sky130_fd_pr__nfet_01v8 ad=0.6156 pd=3.3 as=0.6156 ps=3.3 w=1.08 l=0.18
X34 xaa1.xa1.M3.D IBPSR_1U xaa1.xa1.M2.D AVSS sky130_fd_pr__nfet_01v8 ad=0.378 pd=1.78 as=0.378 ps=1.78 w=1.08 l=0.18
X35 xaa5.xa3.YN xaa5.xa3.A AVSS AVSS sky130_fd_pr__nfet_01v8 ad=0.6156 pd=3.3 as=0.6156 ps=3.3 w=1.08 l=0.18
R9 AVSS m3_37748_87964# sky130_fd_pr__res_generic_m3 w=0.4 l=0.4
X36 xaa6.xc.XA6.MN0.D xaa6.xc.XA4.A AVSS AVSS sky130_fd_pr__nfet_01v8 ad=0.6156 pd=3.3 as=0.6156 ps=3.3 w=1.08 l=0.18
X37 xaa4.xa2_0.M7.D VDD_ROSC xaa4.xa2_0.M6.D AVSS sky130_fd_pr__nfet_01v8 ad=0.378 pd=1.78 as=0.378 ps=1.78 w=1.08 l=0.18
X38 a_n76_76898# a_356_74698# AVSS sky130_fd_pr__res_high_po w=0.72 l=8.96
X39 xaa6.xf.XA7.CN xaa6.xf.XA7.C AVDD AVDD sky130_fd_pr__pfet_01v8 ad=0.6156 pd=3.3 as=0.6156 ps=3.3 w=1.08 l=0.18
X40 AVSS AVSS AVSS AVSS sky130_fd_pr__nfet_01v8 ad=0.6156 pd=3.3 as=60.3288 ps=323.4 w=1.08 l=0.18
X41 xaa4.xa1.M5.D IBPSR_1U xaa4.xa1.M4.D AVSS sky130_fd_pr__nfet_01v8 ad=0.378 pd=1.78 as=0.378 ps=1.78 w=1.08 l=0.18
R10 m3_4628_90684# VLPZ sky130_fd_pr__res_generic_m3 w=0.4 l=0.4
X42 xaa6.xd.XA7.MN2.D PWRUP_1V8 AVSS AVSS sky130_fd_pr__nfet_01v8 ad=0.6156 pd=3.3 as=0.6156 ps=3.3 w=1.08 l=0.18
X43 xaa4.xa2_1.M7.D VDD_ROSC xaa4.xa2_1.M6.D AVSS sky130_fd_pr__nfet_01v8 ad=0.378 pd=1.78 as=0.378 ps=1.78 w=1.08 l=0.18
X44 xaa6.xd.XA3.Y xaa6.xd.XA7.C xaa6.xd.XA3.MN0.D AVSS sky130_fd_pr__nfet_01v8 ad=0.6156 pd=3.3 as=0.6156 ps=3.3 w=1.08 l=0.18
X45 xaa4.xa2_0.M5.D VDD_ROSC xaa4.xa2_0.M4.D AVSS sky130_fd_pr__nfet_01v8 ad=0.378 pd=1.78 as=0.378 ps=1.78 w=1.08 l=0.18
X46 xbb0.xa1.N a_n508_70022# AVSS sky130_fd_pr__res_high_po w=0.72 l=8.96
X47 xaa5.xb2_1.Y xaa5.xb2_1.A AVSS AVSS sky130_fd_pr__nfet_01v8 ad=0.6156 pd=3.3 as=0.6156 ps=3.3 w=1.08 l=0.18
X48 a_1652_76898# a_2084_74698# AVSS sky130_fd_pr__res_high_po w=0.72 l=8.96
X49 xaa6.xf.D xaa6.xf.XA7.C xaa6.xf.XA6.MP0.D AVDD sky130_fd_pr__pfet_01v8 ad=0.6156 pd=3.3 as=0.6156 ps=3.3 w=1.08 l=0.18
X50 xaa4.xa1.M3.D IBPSR_1U xaa4.xa1.M2.D AVSS sky130_fd_pr__nfet_01v8 ad=0.378 pd=1.78 as=0.378 ps=1.78 w=1.08 l=0.18
R11 m3_4628_69564# VLPF sky130_fd_pr__res_generic_m3 w=0.4 l=0.4
X51 xaa6.xf.XA3.MP0.D xaa6.xf.D AVDD AVDD sky130_fd_pr__pfet_01v8 ad=0.6156 pd=3.3 as=0.6156 ps=3.3 w=1.08 l=0.18
X52 IBPSR_1U IBPSR_1U xbb1.xa3.M7.D AVSS sky130_fd_pr__nfet_01v8 ad=0.6156 pd=3.3 as=0.378 ps=1.78 w=1.08 l=0.18
X53 AVSS AVSS AVSS AVSS sky130_fd_pr__nfet_01v8 ad=0.6156 pd=3.3 as=0 ps=0 w=1.08 l=0.18
X54 xaa6.xf.XA6.MP0.D xaa6.xf.XA4.A AVDD AVDD sky130_fd_pr__pfet_01v8 ad=0.6156 pd=3.3 as=0.6156 ps=3.3 w=1.08 l=0.18
X55 xaa6.xd.XA4.MN0.D xaa6.xd.XA4.A AVSS AVSS sky130_fd_pr__nfet_01v8 ad=0.6156 pd=3.3 as=0.6156 ps=3.3 w=1.08 l=0.18
X56 xaa5.xa3.xc1b.S xaa5.xa3.YN AVDD AVDD sky130_fd_pr__pfet_01v8 ad=0.6156 pd=3.3 as=0.6156 ps=3.3 w=1.08 l=0.18
X57 xaa5.xb2_3.A xaa5.xb2_1.Y AVSS AVSS sky130_fd_pr__nfet_01v8 ad=0.6156 pd=3.3 as=0.6156 ps=3.3 w=1.08 l=0.18
R12 AVSS m3_37748_79324# sky130_fd_pr__res_generic_m3 w=0.4 l=0.4
X58 xaa6.xg.XA1.MN0.D CK AVSS AVSS sky130_fd_pr__nfet_01v8 ad=0.6156 pd=3.3 as=0.6156 ps=3.3 w=1.08 l=0.18
X59 AVDD AVDD AVDD AVDD sky130_fd_pr__pfet_01v8 ad=0.6156 pd=3.3 as=0 ps=0 w=1.08 l=0.18
X60 CK xaa5.xa3.YN AVDD AVDD sky130_fd_pr__pfet_01v8 ad=0.6156 pd=3.3 as=0.6156 ps=3.3 w=1.08 l=0.18
R13 m3_13116_60468# AVSS sky130_fd_pr__res_generic_m3 w=0.44 l=0.36
X61 xaa0.xa1.MP0.D xaa0.xa1.D AVSS AVSS sky130_fd_pr__nfet_01v8 ad=0.6156 pd=3.3 as=0.6156 ps=3.3 w=1.08 l=0.18
X62 xbb1.xa3.M6.D IBPSR_1U xbb1.xa3.M5.D AVSS sky130_fd_pr__nfet_01v8 ad=0.378 pd=1.78 as=0.378 ps=1.78 w=1.08 l=0.18
X63 xaa6.xd.CK xaa6.xe.D AVSS AVSS sky130_fd_pr__nfet_01v8 ad=0.6156 pd=3.3 as=0.6156 ps=3.3 w=1.08 l=0.18
X64 xaa5.xb1.B xaa5.xa3.AN AVSS AVSS sky130_fd_pr__nfet_01v8 ad=0.6156 pd=3.3 as=0.6156 ps=3.3 w=1.08 l=0.18
R14 m3_13116_63636# AVSS sky130_fd_pr__res_generic_m3 w=0.44 l=0.36
X65 AVDD PWRUP_1V8 xaa6.xg.XA7.MN0.D AVDD sky130_fd_pr__pfet_01v8 ad=0.6156 pd=3.3 as=0.6156 ps=3.3 w=1.08 l=0.18
X66 xaa4.xa4_1.M5.D VLPF xaa4.xa4_1.M4.D AVSS sky130_fd_pr__nfet_01v8 ad=0.378 pd=1.78 as=0.378 ps=1.78 w=1.08 l=0.18
R15 m3_4628_82044# VLPZ sky130_fd_pr__res_generic_m3 w=0.4 l=0.4
X67 xaa6.xc.XA7.C xaa6.xd.Q AVDD AVDD sky130_fd_pr__pfet_01v8 ad=0.6156 pd=3.3 as=0.6156 ps=3.3 w=1.08 l=0.18
X68 xaa6.xe.XA4.A xaa6.xe.XA3.Y AVSS AVSS sky130_fd_pr__nfet_01v8 ad=0.6156 pd=3.3 as=0.6156 ps=3.3 w=1.08 l=0.18
X69 xaa6.xg.XA3.Y xaa6.xg.XA7.CN xaa6.xg.XA3.MP0.D AVDD sky130_fd_pr__pfet_01v8 ad=0.6156 pd=3.3 as=0.6156 ps=3.3 w=1.08 l=0.18
X70 xaa4.xc2_0.D xaa4.xc1_0.G AVDD AVDD sky130_fd_pr__pfet_01v8 ad=0.5184 pd=3.12 as=0.5184 ps=3.12 w=1.08 l=0.36
X71 xaa6.xe.XA7.C PWRUP_1V8 xaa6.xe.XA1.MN0.D AVSS sky130_fd_pr__nfet_01v8 ad=0.6156 pd=3.3 as=0.6156 ps=3.3 w=1.08 l=0.18
X72 VLPZ xaa3.KICK AVSS AVSS sky130_fd_pr__nfet_01v8 ad=0.378 pd=1.78 as=0.6156 ps=3.3 w=1.08 l=0.18
X73 xaa4.xc1_0.G xaa4.xc1_0.G AVDD AVDD sky130_fd_pr__pfet_01v8 ad=0.5184 pd=3.12 as=0.5184 ps=3.12 w=1.08 l=0.36
R16 m3_4628_85884# VLPZ sky130_fd_pr__res_generic_m3 w=0.4 l=0.4
X74 xaa4.xa4_1.M3.D VLPF xaa4.xa4_1.M2.D AVSS sky130_fd_pr__nfet_01v8 ad=0.378 pd=1.78 as=0.378 ps=1.78 w=1.08 l=0.18
X75 xbb1.PWRUP_1V8_N PWRUP_1V8 AVDD AVDD sky130_fd_pr__pfet_01v8 ad=0.6156 pd=3.3 as=0.6156 ps=3.3 w=1.08 l=0.18
X76 AVDD AVDD AVDD AVDD sky130_fd_pr__pfet_01v8 ad=0.6156 pd=3.3 as=0 ps=0 w=1.08 l=0.18
R17 AVSS m3_37748_74524# sky130_fd_pr__res_generic_m3 w=0.4 l=0.4
X77 xaa1.xa2.M0.D IBPSR_1U AVSS AVSS sky130_fd_pr__nfet_01v8 ad=0.378 pd=1.78 as=0.6156 ps=3.3 w=1.08 l=0.18
X78 xaa6.xe.XA3.Y xaa6.xe.XA7.CN xaa6.xe.XA4.MN0.D AVSS sky130_fd_pr__nfet_01v8 ad=0.6156 pd=3.3 as=0.6156 ps=3.3 w=1.08 l=0.18
X79 xaa6.xg.D xaa6.xg.XA7.C xaa6.xg.XA7.MN0.D AVSS sky130_fd_pr__nfet_01v8 ad=0.6156 pd=3.3 as=0.6156 ps=3.3 w=1.08 l=0.18
X80 xaa6.xg.XA4.MP0.D xaa6.xg.XA4.A AVDD AVDD sky130_fd_pr__pfet_01v8 ad=0.6156 pd=3.3 as=0.6156 ps=3.3 w=1.08 l=0.18
X81 xaa6.xc.D xaa6.xc.XA7.CN xaa6.xc.XA7.MN0.D AVDD sky130_fd_pr__pfet_01v8 ad=0.6156 pd=3.3 as=0.6156 ps=3.3 w=1.08 l=0.18
X82 xaa6.xf.XA7.CN xaa6.xf.XA7.C AVSS AVSS sky130_fd_pr__nfet_01v8 ad=0.6156 pd=3.3 as=0.6156 ps=3.3 w=1.08 l=0.18
X83 xaa4.xa1.M0.D IBPSR_1U AVSS AVSS sky130_fd_pr__nfet_01v8 ad=0.378 pd=1.78 as=0.6156 ps=3.3 w=1.08 l=0.18
X84 xaa6.xg.XA7.MN0.D xaa6.xf.CK xaa6.xg.XA7.MN2.D AVSS sky130_fd_pr__nfet_01v8 ad=0.6156 pd=3.3 as=0.6156 ps=3.3 w=1.08 l=0.18
X85 VDD_ROSC xaa4.xc2_0.D AVDD AVDD sky130_fd_pr__pfet_01v8 ad=0.5184 pd=3.12 as=0.5184 ps=3.12 w=1.08 l=0.36
X86 xaa1.xa2.M2.D IBPSR_1U xaa1.xa2.M1.D AVSS sky130_fd_pr__nfet_01v8 ad=0.378 pd=1.78 as=0.378 ps=1.78 w=1.08 l=0.18
X87 a_1652_72222# a_1220_70022# AVSS sky130_fd_pr__res_high_po w=0.72 l=8.96
X88 xaa0.xa1.MP0.S xaa0.xa1.D AVDD AVDD sky130_fd_pr__pfet_01v8 ad=0.6156 pd=3.3 as=0.6156 ps=3.3 w=1.08 l=0.18
X89 xaa4.xa2_1.M2.D VDD_ROSC xaa4.xa2_1.M1.D AVSS sky130_fd_pr__nfet_01v8 ad=0.378 pd=1.78 as=0.378 ps=1.78 w=1.08 l=0.18
X90 xaa6.xc.XA7.MN0.D xaa6.CK_FB AVDD AVDD sky130_fd_pr__pfet_01v8 ad=0.6156 pd=3.3 as=0.6156 ps=3.3 w=1.08 l=0.18
X91 xaa4.xa2_0.M0.D VDD_ROSC xaa4.xa1.D AVSS sky130_fd_pr__nfet_01v8 ad=0.378 pd=1.78 as=0.6156 ps=3.3 w=1.08 l=0.18
X92 xaa6.xf.D xaa6.xf.XA7.CN xaa6.xf.XA6.MN0.D AVSS sky130_fd_pr__nfet_01v8 ad=0.6156 pd=3.3 as=0.6156 ps=3.3 w=1.08 l=0.18
R18 AVSS m3_37748_90844# sky130_fd_pr__res_generic_m3 w=0.4 l=0.4
X93 AVDD AVDD AVDD AVDD sky130_fd_pr__pfet_01v8 ad=0.6156 pd=3.3 as=0 ps=0 w=1.08 l=0.18
R19 m3_4628_77244# VLPZ sky130_fd_pr__res_generic_m3 w=0.4 l=0.4
X94 xaa6.xf.XA3.MN0.D xaa6.xf.D AVSS AVSS sky130_fd_pr__nfet_01v8 ad=0.6156 pd=3.3 as=0.6156 ps=3.3 w=1.08 l=0.18
X95 AVSS AVSS AVSS AVSS sky130_fd_pr__nfet_01v8 ad=0.6156 pd=3.3 as=0 ps=0 w=1.08 l=0.18
X96 xaa5.xb1.Y PWRUP_1V8 VDD_ROSC AVDD sky130_fd_pr__pfet_01v8 ad=0.6156 pd=3.3 as=0.6156 ps=3.3 w=1.08 l=0.18
X97 AVDD PWRUP_1V8 xaa6.xe.XA7.MN0.D AVDD sky130_fd_pr__pfet_01v8 ad=0.6156 pd=3.3 as=0.6156 ps=3.3 w=1.08 l=0.18
X98 xbb1.xa3.M3.D IBPSR_1U xbb1.xa3.M2.D AVSS sky130_fd_pr__nfet_01v8 ad=0.378 pd=1.78 as=0.378 ps=1.78 w=1.08 l=0.18
X99 xaa6.xe.XA3.Y xaa6.xe.XA7.CN xaa6.xe.XA3.MP0.D AVDD sky130_fd_pr__pfet_01v8 ad=0.6156 pd=3.3 as=0.6156 ps=3.3 w=1.08 l=0.18
X100 xaa6.xf.XA6.MN0.D xaa6.xf.XA4.A AVSS AVSS sky130_fd_pr__nfet_01v8 ad=0.6156 pd=3.3 as=0.6156 ps=3.3 w=1.08 l=0.18
X101 xaa5.xb2_4.A xaa5.xb2_3.A VDD_ROSC AVDD sky130_fd_pr__pfet_01v8 ad=0.6156 pd=3.3 as=0.6156 ps=3.3 w=1.08 l=0.18
X102 xaa4.xa2_0.M2.D VDD_ROSC xaa4.xa2_0.M1.D AVSS sky130_fd_pr__nfet_01v8 ad=0.378 pd=1.78 as=0.378 ps=1.78 w=1.08 l=0.18
R20 AVSS m3_37748_87004# sky130_fd_pr__res_generic_m3 w=0.4 l=0.4
X103 xaa6.xd.XA7.C xaa6.xd.CK AVDD AVDD sky130_fd_pr__pfet_01v8 ad=0.6156 pd=3.3 as=0.6156 ps=3.3 w=1.08 l=0.18
R21 AVSS m3_37748_69724# sky130_fd_pr__res_generic_m3 w=0.4 l=0.4
X104 xbb1.xa3.M1.D IBPSR_1U xbb1.xa3.M0.D AVSS sky130_fd_pr__nfet_01v8 ad=0.378 pd=1.78 as=0.378 ps=1.78 w=1.08 l=0.18
X105 xaa4.xa4_0.M4.D VLPF xaa4.xa4_0.M3.D AVSS sky130_fd_pr__nfet_01v8 ad=0.378 pd=1.78 as=0.378 ps=1.78 w=1.08 l=0.18
R22 m3_4628_72444# VLPZ sky130_fd_pr__res_generic_m3 w=0.4 l=0.4
X106 xaa6.xe.XA4.MP0.D xaa6.xe.XA4.A AVDD AVDD sky130_fd_pr__pfet_01v8 ad=0.6156 pd=3.3 as=0.6156 ps=3.3 w=1.08 l=0.18
X107 xaa5.xb2_4.Y xaa5.xb2_4.A VDD_ROSC AVDD sky130_fd_pr__pfet_01v8 ad=0.6156 pd=3.3 as=0.6156 ps=3.3 w=1.08 l=0.18
X108 AVSS AVSS AVSS AVSS sky130_fd_pr__nfet_01v8 ad=0.6156 pd=3.3 as=0 ps=0 w=1.08 l=0.18
X109 xaa6.xc.XA7.MN2.D PWRUP_1V8 AVSS AVSS sky130_fd_pr__nfet_01v8 ad=0.6156 pd=3.3 as=0.6156 ps=3.3 w=1.08 l=0.18
R23 AVSS m3_37748_82204# sky130_fd_pr__res_generic_m3 w=0.4 l=0.4
X110 xaa6.xc.XA3.Y xaa6.xc.XA7.C xaa6.xc.XA3.MN0.D AVSS sky130_fd_pr__nfet_01v8 ad=0.6156 pd=3.3 as=0.6156 ps=3.3 w=1.08 l=0.18
X111 xaa5.xa3.YN xaa5.xa3.A AVSS AVSS sky130_fd_pr__nfet_01v8 ad=0.6156 pd=3.3 as=0.6156 ps=3.3 w=1.08 l=0.18
X112 xaa6.xd.D xaa6.xd.XA7.CN xaa6.xd.XA7.MN0.D AVDD sky130_fd_pr__pfet_01v8 ad=0.6156 pd=3.3 as=0.6156 ps=3.3 w=1.08 l=0.18
X113 xaa4.xa4_1.M2.D VLPF xaa4.xa4_1.M1.D AVSS sky130_fd_pr__nfet_01v8 ad=0.378 pd=1.78 as=0.378 ps=1.78 w=1.08 l=0.18
X114 VDD_ROSC xaa4.xc2_0.D AVDD AVDD sky130_fd_pr__pfet_01v8 ad=0.5184 pd=3.12 as=0.5184 ps=3.12 w=1.08 l=0.36
X115 xaa4.xc2_0.D xaa4.xc1_0.G AVDD AVDD sky130_fd_pr__pfet_01v8 ad=0.5184 pd=3.12 as=0.5184 ps=3.12 w=1.08 l=0.36
R24 m3_13116_62580# AVSS sky130_fd_pr__res_generic_m3 w=0.44 l=0.36
X116 xaa4.xc1_0.G xaa4.xc1_0.G AVDD AVDD sky130_fd_pr__pfet_01v8 ad=0.5184 pd=3.12 as=0.5184 ps=3.12 w=1.08 l=0.36
X117 xaa6.xd.XA7.MN0.D xaa6.xd.Q AVDD AVDD sky130_fd_pr__pfet_01v8 ad=0.6156 pd=3.3 as=0.6156 ps=3.3 w=1.08 l=0.18
X118 xaa6.xc.XA4.MN0.D xaa6.xc.XA4.A AVSS AVSS sky130_fd_pr__nfet_01v8 ad=0.6156 pd=3.3 as=0.6156 ps=3.3 w=1.08 l=0.18
X119 xaa1.xa1.M7.D IBPSR_1U xaa1.xa1.M6.D AVSS sky130_fd_pr__nfet_01v8 ad=0.378 pd=1.78 as=0.378 ps=1.78 w=1.08 l=0.18
X120 xaa5.xa4.Y xaa5.xa3.Y AVSS AVSS sky130_fd_pr__nfet_01v8 ad=0.6156 pd=3.3 as=0.6156 ps=3.3 w=1.08 l=0.18
X121 AVDD AVDD AVDD AVDD sky130_fd_pr__pfet_01v8 ad=0.6156 pd=3.3 as=0 ps=0 w=1.08 l=0.18
X122 AVDD PWRUP_1V8 xaa6.xf.XA7.MN0.D AVDD sky130_fd_pr__pfet_01v8 ad=0.6156 pd=3.3 as=0.6156 ps=3.3 w=1.08 l=0.18
X123 xaa6.xf.XA3.Y xaa6.xf.XA7.CN xaa6.xf.XA3.MP0.D AVDD sky130_fd_pr__pfet_01v8 ad=0.6156 pd=3.3 as=0.6156 ps=3.3 w=1.08 l=0.18
X124 VDD_ROSC xaa4.xc2_0.D AVDD AVDD sky130_fd_pr__pfet_01v8 ad=0.5184 pd=3.12 as=0.5184 ps=3.12 w=1.08 l=0.36
X125 xaa5.xb1.MN0.D PWRUP_1V8 AVSS AVSS sky130_fd_pr__nfet_01v8 ad=0.6156 pd=3.3 as=0.6156 ps=3.3 w=1.08 l=0.18
X126 VDD_ROSC xaa4.xc2_0.D AVDD AVDD sky130_fd_pr__pfet_01v8 ad=0.5184 pd=3.12 as=0.5184 ps=3.12 w=1.08 l=0.36
X127 xaa3.xa6.Y xaa3.xa5a.Y AVDD AVDD sky130_fd_pr__pfet_01v8 ad=0.6156 pd=3.3 as=0.6156 ps=3.3 w=1.08 l=0.18
X128 IBPSR_1U xbb1.PWRUP_1V8_N AVSS AVSS sky130_fd_pr__nfet_01v8 ad=0.6156 pd=3.3 as=0.6156 ps=3.3 w=1.08 l=0.18
X129 xaa5.xb2_4.A xaa5.xb2_3.A AVSS AVSS sky130_fd_pr__nfet_01v8 ad=0.6156 pd=3.3 as=0.6156 ps=3.3 w=1.08 l=0.18
R25 m3_4628_88764# VLPZ sky130_fd_pr__res_generic_m3 w=0.4 l=0.4
X130 xaa6.xd.XA1.MN0.D xaa6.xd.CK AVSS AVSS sky130_fd_pr__nfet_01v8 ad=0.6156 pd=3.3 as=0.6156 ps=3.3 w=1.08 l=0.18
X131 xaa4.xa1.M7.D IBPSR_1U xaa4.xa1.M6.D AVSS sky130_fd_pr__nfet_01v8 ad=0.378 pd=1.78 as=0.378 ps=1.78 w=1.08 l=0.18
R26 AVSS m3_37748_77404# sky130_fd_pr__res_generic_m3 w=0.4 l=0.4
X132 xaa6.xf.XA4.MP0.D xaa6.xf.XA4.A AVDD AVDD sky130_fd_pr__pfet_01v8 ad=0.6156 pd=3.3 as=0.6156 ps=3.3 w=1.08 l=0.18
X133 xaa3.xa7.Y xaa3.xa6.Y AVDD AVDD sky130_fd_pr__pfet_01v8 ad=0.6156 pd=3.3 as=0.6156 ps=3.3 w=1.08 l=0.18
R27 m3_4628_80124# VLPZ sky130_fd_pr__res_generic_m3 w=0.4 l=0.4
X134 xaa3.KICK_N xaa3.KICK AVDD AVDD sky130_fd_pr__pfet_01v8 ad=0.6156 pd=3.3 as=0.6156 ps=3.3 w=1.08 l=0.18
X135 a_n76_72222# a_356_70022# AVSS sky130_fd_pr__res_high_po w=0.72 l=8.96
X136 xaa6.xe.XA7.CN xaa6.xe.XA7.C AVSS AVSS sky130_fd_pr__nfet_01v8 ad=0.6156 pd=3.3 as=0.6156 ps=3.3 w=1.08 l=0.18
X137 xaa5.xb2_4.Y xaa5.xb2_4.A AVSS AVSS sky130_fd_pr__nfet_01v8 ad=0.6156 pd=3.3 as=0.6156 ps=3.3 w=1.08 l=0.18
R28 m3_13116_53076# AVSS sky130_fd_pr__res_generic_m3 w=0.44 l=0.36
R29 VDD_ROSC m3_22692_62404# sky130_fd_pr__res_generic_m3 w=0.44 l=0.36
R30 m3_13116_56244# AVSS sky130_fd_pr__res_generic_m3 w=0.44 l=0.36
X138 VDD_ROSC xaa4.xc2_0.D AVDD AVDD sky130_fd_pr__pfet_01v8 ad=0.5184 pd=3.12 as=0.5184 ps=3.12 w=1.08 l=0.36
R31 m3_13116_59412# AVSS sky130_fd_pr__res_generic_m3 w=0.44 l=0.36
R32 m3_4628_83964# VLPZ sky130_fd_pr__res_generic_m3 w=0.4 l=0.4
X139 xaa4.xc2_0.D xaa4.xc1_0.G AVDD AVDD sky130_fd_pr__pfet_01v8 ad=0.5184 pd=3.12 as=0.5184 ps=3.12 w=1.08 l=0.36
X140 a_788_76898# a_356_74698# AVSS sky130_fd_pr__res_high_po w=0.72 l=8.96
R33 AVSS m3_37748_72604# sky130_fd_pr__res_generic_m3 w=0.4 l=0.4
X141 xaa5.xa3.Y xaa5.xa3.YN xaa5.xa3.xc1b.S AVDD sky130_fd_pr__pfet_01v8 ad=0.6156 pd=3.3 as=0.6156 ps=3.3 w=1.08 l=0.18
X142 a_1652_72222# a_2084_70022# AVSS sky130_fd_pr__res_high_po w=0.72 l=8.96
X143 xaa4.xc1_0.G xaa4.xc1_0.G AVDD AVDD sky130_fd_pr__pfet_01v8 ad=0.5184 pd=3.12 as=0.5184 ps=3.12 w=1.08 l=0.36
X144 xaa6.xe.D xaa6.xe.XA7.CN xaa6.xe.XA6.MN0.D AVSS sky130_fd_pr__nfet_01v8 ad=0.6156 pd=3.3 as=0.6156 ps=3.3 w=1.08 l=0.18
X145 xaa6.xd.D xaa6.xd.XA7.C xaa6.xd.XA7.MN0.D AVSS sky130_fd_pr__nfet_01v8 ad=0.6156 pd=3.3 as=0.6156 ps=3.3 w=1.08 l=0.18
X146 xaa6.xf.CK xaa6.xg.D AVSS AVSS sky130_fd_pr__nfet_01v8 ad=0.6156 pd=3.3 as=0.6156 ps=3.3 w=1.08 l=0.18
X147 xaa6.xg.XA7.C CK AVDD AVDD sky130_fd_pr__pfet_01v8 ad=0.6156 pd=3.3 as=0.6156 ps=3.3 w=1.08 l=0.18
X148 xaa6.xe.XA3.MN0.D xaa6.xe.D AVSS AVSS sky130_fd_pr__nfet_01v8 ad=0.6156 pd=3.3 as=0.6156 ps=3.3 w=1.08 l=0.18
X149 xaa6.xg.XA4.A xaa6.xg.XA3.Y AVSS AVSS sky130_fd_pr__nfet_01v8 ad=0.6156 pd=3.3 as=0.6156 ps=3.3 w=1.08 l=0.18
X150 xaa0.xa5.MP0.D xaa0.xa1.D AVSS AVSS sky130_fd_pr__nfet_01v8 ad=0.6156 pd=3.3 as=0.6156 ps=3.3 w=1.08 l=0.18
X151 xaa6.CK_FB xaa6.xc.D AVDD AVDD sky130_fd_pr__pfet_01v8 ad=0.6156 pd=3.3 as=0.6156 ps=3.3 w=1.08 l=0.18
X152 xaa6.xg.XA7.C PWRUP_1V8 xaa6.xg.XA1.MN0.D AVSS sky130_fd_pr__nfet_01v8 ad=0.6156 pd=3.3 as=0.6156 ps=3.3 w=1.08 l=0.18
X153 xaa4.xa4_1.M7.D VLPF xaa4.xa4_1.M6.D AVSS sky130_fd_pr__nfet_01v8 ad=0.378 pd=1.78 as=0.378 ps=1.78 w=1.08 l=0.18
R34 VDD_ROSC m3_22692_56068# sky130_fd_pr__res_generic_m3 w=0.44 l=0.36
X154 xaa6.xc.XA4.A xaa6.xc.XA3.Y AVDD AVDD sky130_fd_pr__pfet_01v8 ad=0.6156 pd=3.3 as=0.6156 ps=3.3 w=1.08 l=0.18
R35 AVSS m3_37748_85084# sky130_fd_pr__res_generic_m3 w=0.4 l=0.4
R36 VDD_ROSC m3_22692_59236# sky130_fd_pr__res_generic_m3 w=0.44 l=0.36
X155 xaa0.xa1.MN2.D CK_REF xaa0.xa1.Q AVSS sky130_fd_pr__nfet_01v8 ad=0.6156 pd=3.3 as=0.6156 ps=3.3 w=1.08 l=0.18
X156 xaa6.xe.XA6.MN0.D xaa6.xe.XA4.A AVSS AVSS sky130_fd_pr__nfet_01v8 ad=0.6156 pd=3.3 as=0.6156 ps=3.3 w=1.08 l=0.18
X157 xaa6.xd.XA7.MN0.D xaa6.xd.Q xaa6.xd.XA7.MN2.D AVSS sky130_fd_pr__nfet_01v8 ad=0.6156 pd=3.3 as=0.6156 ps=3.3 w=1.08 l=0.18
X158 AVDD PWRUP_1V8 xaa6.xc.XA7.C AVDD sky130_fd_pr__pfet_01v8 ad=0.6156 pd=3.3 as=0.6156 ps=3.3 w=1.08 l=0.18
X159 xaa6.xg.XA3.Y xaa6.xg.XA7.CN xaa6.xg.XA4.MN0.D AVSS sky130_fd_pr__nfet_01v8 ad=0.6156 pd=3.3 as=0.6156 ps=3.3 w=1.08 l=0.18
X160 xaa1.xa1.M2.D IBPSR_1U xaa1.xa1.M1.D AVSS sky130_fd_pr__nfet_01v8 ad=0.378 pd=1.78 as=0.378 ps=1.78 w=1.08 l=0.18
X161 AVSS AVSS AVSS AVSS sky130_fd_pr__nfet_01v8 ad=0.6156 pd=3.3 as=0 ps=0 w=1.08 l=0.18
X162 AVSS xaa0.xa3.B xaa0.xa1.D AVSS sky130_fd_pr__nfet_01v8 ad=0.6156 pd=3.3 as=0.6156 ps=3.3 w=1.08 l=0.18
X163 VDD_ROSC xaa4.xc2_0.D AVDD AVDD sky130_fd_pr__pfet_01v8 ad=0.5184 pd=3.12 as=0.5184 ps=3.12 w=1.08 l=0.36
X164 xaa6.xf.XA7.MN2.D PWRUP_1V8 AVSS AVSS sky130_fd_pr__nfet_01v8 ad=0.6156 pd=3.3 as=0.6156 ps=3.3 w=1.08 l=0.18
X165 xaa6.xc.XA3.Y xaa6.xc.XA7.C xaa6.xc.XA4.MP0.D AVDD sky130_fd_pr__pfet_01v8 ad=0.6156 pd=3.3 as=0.6156 ps=3.3 w=1.08 l=0.18
R37 li_4836_57412# xaa3.xa5a.Y sky130_fd_pr__res_generic_l1 w=0.44 l=0.36
X166 a_n76_76898# a_n508_74698# AVSS sky130_fd_pr__res_high_po w=0.72 l=8.96
X167 xaa6.xf.XA3.Y xaa6.xf.XA7.C xaa6.xf.XA3.MN0.D AVSS sky130_fd_pr__nfet_01v8 ad=0.6156 pd=3.3 as=0.6156 ps=3.3 w=1.08 l=0.18
X168 xbb1.PWRUP_1V8_N PWRUP_1V8 AVSS AVSS sky130_fd_pr__nfet_01v8 ad=0.6156 pd=3.3 as=0.6156 ps=3.3 w=1.08 l=0.18
R38 m3_4628_75324# VLPZ sky130_fd_pr__res_generic_m3 w=0.4 l=0.4
X169 xaa6.xg.D xaa6.xg.XA7.CN xaa6.xg.XA7.MN0.D AVDD sky130_fd_pr__pfet_01v8 ad=0.6156 pd=3.3 as=0.6156 ps=3.3 w=1.08 l=0.18
X170 xbb1.xa3.M5.D IBPSR_1U xbb1.xa3.M4.D AVSS sky130_fd_pr__nfet_01v8 ad=0.378 pd=1.78 as=0.378 ps=1.78 w=1.08 l=0.18
R39 AVSS m3_37748_80284# sky130_fd_pr__res_generic_m3 w=0.4 l=0.4
X171 xaa4.xa1.M2.D IBPSR_1U xaa4.xa1.M1.D AVSS sky130_fd_pr__nfet_01v8 ad=0.378 pd=1.78 as=0.378 ps=1.78 w=1.08 l=0.18
X172 xaa6.xg.XA7.MN0.D xaa6.xf.CK AVDD AVDD sky130_fd_pr__pfet_01v8 ad=0.6156 pd=3.3 as=0.6156 ps=3.3 w=1.08 l=0.18
X173 xaa6.xf.XA4.MN0.D xaa6.xf.XA4.A AVSS AVSS sky130_fd_pr__nfet_01v8 ad=0.6156 pd=3.3 as=0.6156 ps=3.3 w=1.08 l=0.18
X174 xaa0.xa5.MP0.S xaa0.xa1.D AVDD AVDD sky130_fd_pr__pfet_01v8 ad=0.6156 pd=3.3 as=0.6156 ps=3.3 w=1.08 l=0.18
X175 VDD_ROSC xaa4.xc2_0.D AVDD AVDD sky130_fd_pr__pfet_01v8 ad=0.5184 pd=3.12 as=0.5184 ps=3.12 w=1.08 l=0.36
R40 VDD_ROSC m3_22692_53956# sky130_fd_pr__res_generic_m3 w=0.44 l=0.36
X176 xbb1.xa3.M7.D IBPSR_1U xbb1.xa3.M6.D AVSS sky130_fd_pr__nfet_01v8 ad=0.378 pd=1.78 as=0.378 ps=1.78 w=1.08 l=0.18
X177 xaa0.xa1.MP0.D CK_REF xaa0.xa1.MP0.S AVDD sky130_fd_pr__pfet_01v8 ad=0.6156 pd=3.3 as=0.6156 ps=3.3 w=1.08 l=0.18
R41 AVSS m3_37748_88924# sky130_fd_pr__res_generic_m3 w=0.4 l=0.4
R42 m3_4628_70524# VLPF sky130_fd_pr__res_generic_m3 w=0.4 l=0.4
X178 xaa6.xe.XA7.C xaa6.xe.CK AVDD AVDD sky130_fd_pr__pfet_01v8 ad=0.6156 pd=3.3 as=0.6156 ps=3.3 w=1.08 l=0.18
X179 xaa3.xa1c.Y xbb1.PWRUP_1V8_N AVDD AVDD sky130_fd_pr__pfet_01v8 ad=0.6156 pd=3.3 as=0.6156 ps=3.3 w=1.08 l=0.18
X180 VDD_ROSC xaa5.xb1.B xaa5.xb1.Y AVDD sky130_fd_pr__pfet_01v8 ad=0.6156 pd=3.3 as=0.6156 ps=3.3 w=1.08 l=0.18
X181 xaa0.xa1.D xaa0.xa3.B xaa0.xa3.MP0.D AVDD sky130_fd_pr__pfet_01v8 ad=0.6156 pd=3.3 as=0.6156 ps=3.3 w=1.08 l=0.18
R43 m3_4628_91644# VLPZ sky130_fd_pr__res_generic_m3 w=0.4 l=0.4
X182 xaa4.xc2_0.D VLPF xaa4.xa4_0.M7.D AVSS sky130_fd_pr__nfet_01v8 ad=0.6156 pd=3.3 as=0.378 ps=1.78 w=1.08 l=0.18
X183 xaa6.xd.Q xaa6.xd.D AVDD AVDD sky130_fd_pr__pfet_01v8 ad=0.6156 pd=3.3 as=0.6156 ps=3.3 w=1.08 l=0.18
X184 xaa4.xa2_1.M6.D VDD_ROSC xaa4.xa2_1.M5.D AVSS sky130_fd_pr__nfet_01v8 ad=0.378 pd=1.78 as=0.378 ps=1.78 w=1.08 l=0.18
X185 xaa6.xd.XA4.A xaa6.xd.XA3.Y AVDD AVDD sky130_fd_pr__pfet_01v8 ad=0.6156 pd=3.3 as=0.6156 ps=3.3 w=1.08 l=0.18
X186 xaa5.xa3.Y xaa5.xa3.AN AVSS AVSS sky130_fd_pr__nfet_01v8 ad=0.6156 pd=3.3 as=0.6156 ps=3.3 w=1.08 l=0.18
X187 AVDD PWRUP_1V8 xaa6.xd.XA7.C AVDD sky130_fd_pr__pfet_01v8 ad=0.6156 pd=3.3 as=0.6156 ps=3.3 w=1.08 l=0.18
X188 xaa4.xa4_0.M6.D VLPF xaa4.xa4_0.M5.D AVSS sky130_fd_pr__nfet_01v8 ad=0.378 pd=1.78 as=0.378 ps=1.78 w=1.08 l=0.18
X189 CK xaa5.xa3.YN AVSS AVSS sky130_fd_pr__nfet_01v8 ad=0.6156 pd=3.3 as=0.6156 ps=3.3 w=1.08 l=0.18
R44 AVSS m3_37748_75484# sky130_fd_pr__res_generic_m3 w=0.4 l=0.4
X190 xaa4.xa2_1.M4.D VDD_ROSC xaa4.xa2_1.M3.D AVSS sky130_fd_pr__nfet_01v8 ad=0.378 pd=1.78 as=0.378 ps=1.78 w=1.08 l=0.18
X191 xaa4.xc2_0.D xaa4.xc1_0.G AVDD AVDD sky130_fd_pr__pfet_01v8 ad=0.5184 pd=3.12 as=0.5184 ps=3.12 w=1.08 l=0.36
X192 xaa6.xe.D xaa6.xe.XA7.CN xaa6.xe.XA7.MN0.D AVDD sky130_fd_pr__pfet_01v8 ad=0.6156 pd=3.3 as=0.6156 ps=3.3 w=1.08 l=0.18
X193 xaa6.xd.XA3.Y xaa6.xd.XA7.C xaa6.xd.XA4.MP0.D AVDD sky130_fd_pr__pfet_01v8 ad=0.6156 pd=3.3 as=0.6156 ps=3.3 w=1.08 l=0.18
X194 xaa6.xc.XA1.MN0.D xaa6.xd.Q AVSS AVSS sky130_fd_pr__nfet_01v8 ad=0.6156 pd=3.3 as=0.6156 ps=3.3 w=1.08 l=0.18
X195 xaa6.xe.XA7.MN0.D xaa6.xd.CK AVDD AVDD sky130_fd_pr__pfet_01v8 ad=0.6156 pd=3.3 as=0.6156 ps=3.3 w=1.08 l=0.18
X196 AVSS AVSS AVSS AVSS sky130_fd_pr__nfet_01v8 ad=0.6156 pd=3.3 as=0 ps=0 w=1.08 l=0.18
R45 m3_4628_83004# VLPZ sky130_fd_pr__res_generic_m3 w=0.4 l=0.4
R46 AVSS m3_37748_70684# sky130_fd_pr__res_generic_m3 w=0.4 l=0.4
X197 xaa3.KICK xaa3.xa7.Y xaa3.xa8.MP0.D AVDD sky130_fd_pr__pfet_01v8 ad=0.6156 pd=3.3 as=0.6156 ps=3.3 w=1.08 l=0.18
R47 VDD_ROSC m3_22692_58180# sky130_fd_pr__res_generic_m3 w=0.44 l=0.36
R48 m3_4628_86844# VLPZ sky130_fd_pr__res_generic_m3 w=0.4 l=0.4
X198 xaa6.xc.D xaa6.xc.XA7.C xaa6.xc.XA7.MN0.D AVSS sky130_fd_pr__nfet_01v8 ad=0.6156 pd=3.3 as=0.6156 ps=3.3 w=1.08 l=0.18
X199 xaa6.xf.XA7.C xaa6.xf.CK AVDD AVDD sky130_fd_pr__pfet_01v8 ad=0.6156 pd=3.3 as=0.6156 ps=3.3 w=1.08 l=0.18
X200 xaa3.xa8.MP0.D xbb1.PWRUP_1V8_N AVDD AVDD sky130_fd_pr__pfet_01v8 ad=0.6156 pd=3.3 as=0.6156 ps=3.3 w=1.08 l=0.18
X201 xbb1.xa3.M2.D IBPSR_1U xbb1.xa3.M1.D AVSS sky130_fd_pr__nfet_01v8 ad=0.378 pd=1.78 as=0.378 ps=1.78 w=1.08 l=0.18
R49 AVSS li_6204_57940# sky130_fd_pr__res_generic_l1 w=0.44 l=0.36
X202 a_788_76898# a_1220_74698# AVSS sky130_fd_pr__res_high_po w=0.72 l=8.96
X203 xaa1.xb1.M0.D xaa1.xa1.D AVDD AVDD sky130_fd_pr__pfet_01v8 ad=0.378 pd=1.78 as=0.6156 ps=3.3 w=1.08 l=0.18
X204 xaa6.xc.XA7.MN0.D xaa6.CK_FB xaa6.xc.XA7.MN2.D AVSS sky130_fd_pr__nfet_01v8 ad=0.6156 pd=3.3 as=0.6156 ps=3.3 w=1.08 l=0.18
X205 xaa5.xb1.Y xaa5.xb1.B xaa5.xb1.MN0.D AVSS sky130_fd_pr__nfet_01v8 ad=0.6156 pd=3.3 as=0.6156 ps=3.3 w=1.08 l=0.18
X206 AVSS AVSS AVSS AVSS sky130_fd_pr__nfet_01v8 ad=0.6156 pd=3.3 as=0 ps=0 w=1.08 l=0.18
X207 xbb1.xa3.M0.D IBPSR_1U AVSS AVSS sky130_fd_pr__nfet_01v8 ad=0.378 pd=1.78 as=0.6156 ps=3.3 w=1.08 l=0.18
X208 xaa6.xe.XA7.MN2.D PWRUP_1V8 AVSS AVSS sky130_fd_pr__nfet_01v8 ad=0.6156 pd=3.3 as=0.6156 ps=3.3 w=1.08 l=0.18
X209 xaa6.xd.Q xaa6.xd.D AVSS AVSS sky130_fd_pr__nfet_01v8 ad=0.6156 pd=3.3 as=0.6156 ps=3.3 w=1.08 l=0.18
X210 xaa4.xa4_0.M3.D VLPF xaa4.xa4_0.M2.D AVSS sky130_fd_pr__nfet_01v8 ad=0.378 pd=1.78 as=0.378 ps=1.78 w=1.08 l=0.18
R50 VDD_ROSC m3_22692_55012# sky130_fd_pr__res_generic_m3 w=0.44 l=0.36
X211 xaa3.xa6.Y xaa3.xa5a.Y AVSS AVSS sky130_fd_pr__nfet_01v8 ad=0.6156 pd=3.3 as=0.6156 ps=3.3 w=1.08 l=0.18
X212 xaa1.xa1.M0.D IBPSR_1U AVSS AVSS sky130_fd_pr__nfet_01v8 ad=0.378 pd=1.78 as=0.6156 ps=3.3 w=1.08 l=0.18
X213 xaa6.xe.XA3.Y xaa6.xe.XA7.C xaa6.xe.XA3.MN0.D AVSS sky130_fd_pr__nfet_01v8 ad=0.6156 pd=3.3 as=0.6156 ps=3.3 w=1.08 l=0.18
X214 xaa6.xd.XA4.A xaa6.xd.XA3.Y AVSS AVSS sky130_fd_pr__nfet_01v8 ad=0.6156 pd=3.3 as=0.6156 ps=3.3 w=1.08 l=0.18
X215 xaa4.xa2_1.M1.D VDD_ROSC xaa4.xa2_1.M0.D AVSS sky130_fd_pr__nfet_01v8 ad=0.378 pd=1.78 as=0.378 ps=1.78 w=1.08 l=0.18
X216 xaa6.xf.D xaa6.xf.XA7.CN xaa6.xf.XA7.MN0.D AVDD sky130_fd_pr__pfet_01v8 ad=0.6156 pd=3.3 as=0.6156 ps=3.3 w=1.08 l=0.18
R51 AVSS m3_37748_91804# sky130_fd_pr__res_generic_m3 w=0.4 l=0.4
X217 xaa6.xd.XA7.C PWRUP_1V8 xaa6.xd.XA1.MN0.D AVSS sky130_fd_pr__nfet_01v8 ad=0.6156 pd=3.3 as=0.6156 ps=3.3 w=1.08 l=0.18
X218 xaa6.xg.XA7.CN xaa6.xg.XA7.C AVSS AVSS sky130_fd_pr__nfet_01v8 ad=0.6156 pd=3.3 as=0.6156 ps=3.3 w=1.08 l=0.18
R52 m3_4628_78204# VLPZ sky130_fd_pr__res_generic_m3 w=0.4 l=0.4
X219 AVSS xaa0.xa1.MP0.D xaa0.xa1.MN2.D AVSS sky130_fd_pr__nfet_01v8 ad=0.6156 pd=3.3 as=0.6156 ps=3.3 w=1.08 l=0.18
X220 xaa4.xa4_0.M1.D VLPF xaa4.xa4_0.M0.D AVSS sky130_fd_pr__nfet_01v8 ad=0.378 pd=1.78 as=0.378 ps=1.78 w=1.08 l=0.18
R53 AVSS m3_37748_83164# sky130_fd_pr__res_generic_m3 w=0.4 l=0.4
X221 xaa6.xc.XA7.CN xaa6.xc.XA7.C AVDD AVDD sky130_fd_pr__pfet_01v8 ad=0.6156 pd=3.3 as=0.6156 ps=3.3 w=1.08 l=0.18
X222 xaa6.xd.XA3.Y xaa6.xd.XA7.CN xaa6.xd.XA4.MN0.D AVSS sky130_fd_pr__nfet_01v8 ad=0.6156 pd=3.3 as=0.6156 ps=3.3 w=1.08 l=0.18
X223 xaa3.xa7.Y xaa3.xa6.Y AVSS AVSS sky130_fd_pr__nfet_01v8 ad=0.6156 pd=3.3 as=0.6156 ps=3.3 w=1.08 l=0.18
X224 xaa3.KICK_N xaa3.KICK AVSS AVSS sky130_fd_pr__nfet_01v8 ad=0.6156 pd=3.3 as=0.6156 ps=3.3 w=1.08 l=0.18
X225 xaa6.xf.XA7.MN0.D xaa6.xe.CK AVDD AVDD sky130_fd_pr__pfet_01v8 ad=0.6156 pd=3.3 as=0.6156 ps=3.3 w=1.08 l=0.18
X226 xaa6.xe.XA4.MN0.D xaa6.xe.XA4.A AVSS AVSS sky130_fd_pr__nfet_01v8 ad=0.6156 pd=3.3 as=0.6156 ps=3.3 w=1.08 l=0.18
X227 xaa6.xg.D xaa6.xg.XA7.CN xaa6.xg.XA6.MN0.D AVSS sky130_fd_pr__nfet_01v8 ad=0.6156 pd=3.3 as=0.6156 ps=3.3 w=1.08 l=0.18
X228 AVSS xaa0.xa5.MP0.D xaa0.xa5.MN2.D AVSS sky130_fd_pr__nfet_01v8 ad=0.6156 pd=3.3 as=0.6156 ps=3.3 w=1.08 l=0.18
X229 xaa6.xg.XA3.MN0.D xaa6.xg.D AVSS AVSS sky130_fd_pr__nfet_01v8 ad=0.6156 pd=3.3 as=0.6156 ps=3.3 w=1.08 l=0.18